19
Iteration:  2706
 C        -0.031954        -0.691217         0.127790
 C         1.288273        -0.019422        -0.029344
 C         2.525855        -0.934515        -0.401857
 C         3.374062         0.219721        -0.798910
 C         4.858164         0.164410        -1.101476
 O         2.711196         0.863184        -1.927107
 C         1.671584         1.237651        -0.975047
 C         2.697452         1.336183         0.205092
 O         1.826765         0.744902         1.115421
 H        -0.337921        -1.384626         0.932081
 H        -0.709838         0.188354         0.303415
 H        -0.459137        -1.140501        -0.748358
 H         2.575485        -1.408169         0.603502
 H         2.293012        -1.647041        -1.243693
 H         5.147790         1.094838        -1.578174
 H         5.446904         0.113375        -0.138301
 H         5.004151        -0.661982        -1.723267
 H         0.948766         1.947250        -1.316576
 H         3.230300         2.251743         0.670343
