19
Iteration:  3944charge 0 multiplicity 1
 C        -0.120011        -0.621336        -0.019114
 C         1.320421        -0.105860        -0.012175
 C         2.561396        -0.912931        -0.417539
 C         3.324441         0.302385        -0.804978
 C         4.828185         0.220426        -1.044779
 O         2.638761         0.823603        -1.919714
 C         1.651945         1.231957        -0.988941
 C         2.674233         1.373393         0.227903
 O         1.961432         0.636569         1.205000
 H        -0.074897        -1.373519         0.841392
 H        -0.770823         0.248115         0.275650
 H        -0.345382        -1.029752        -1.000397
 H         2.900589        -1.366219         0.501935
 H         2.404626        -1.638454        -1.191726
 H         5.392723         1.206670        -0.742675
 H         5.271912        -0.605238        -0.496246
 H         4.914077         0.018457        -2.186144
 H         0.932157         1.910217        -1.293898
 H         3.228625         2.242890         0.537034
