19
Iteration:  1825
 C        -0.110867        -0.651354         0.272735
 C         1.240095        -0.050928        -0.096999
 C         2.500248        -0.893835        -0.547045
 C         3.404546         0.321411        -0.867383
 C         4.899398         0.219742        -0.958253
 O         2.687502         0.833150        -1.977816
 C         1.709013         1.246282        -0.974791
 C         2.617008         1.370420         0.196230
 O         1.907291         0.566416         1.112132
 H         0.035071        -1.262140         1.199607
 H        -0.851164         0.107458         0.677180
 H        -0.512650        -1.158824        -0.526564
 H         2.731048        -1.597708         0.327545
 H         2.291318        -1.478986        -1.483852
 H         5.269695         1.156483        -0.712141
 H         5.220745        -0.463439        -0.160891
 H         5.542251        -0.069653        -1.841173
 H         0.967502         2.096261        -1.317341
 H         3.021139         2.367477         0.476630
