19
Iteration:  1875
 C        -0.059541        -0.630061        -0.070976
 C         1.316839        -0.053480        -0.011718
 C         2.599872        -0.923286        -0.376007
 C         3.385651         0.278704        -0.907782
 C         4.886050         0.138234        -1.196687
 O         2.610243         0.814527        -1.902095
 C         1.636148         1.247715        -0.873883
 C         2.689496         1.422090         0.331529
 O         1.794209         0.684823         1.256797
 H        -0.174547        -1.374793         0.759045
 H        -0.705967         0.247939         0.097852
 H        -0.379335        -1.153344        -1.098190
 H         3.101935        -1.234614         0.474530
 H         2.414345        -1.776545        -1.128796
 H         5.392480         1.195495        -1.380976
 H         5.457273        -0.438063        -0.467677
 H         5.152911        -0.384970        -2.145108
 H         0.854804         1.844371        -1.283104
 H         3.297894         2.162543         0.862456
