19
Iteration:  2572
 C        -0.145352        -0.587475        -0.027936
 C         1.287387        -0.043591        -0.022954
 C         2.547259        -0.952265        -0.341575
 C         3.491788         0.265723        -0.744146
 C         4.897068         0.133982        -1.219711
 O         2.664118         0.876976        -1.869495
 C         1.626681         1.123067        -0.931143
 C         2.726665         1.468391         0.240209
 O         1.808259         0.677380         1.205245
 H        -0.191338        -1.005117         0.984995
 H        -1.027089         0.181689        -0.044145
 H        -0.192104        -1.414838        -0.839608
 H         2.884913        -1.652241         0.394181
 H         2.278566        -1.694266        -1.289470
 H         5.133872         1.126107        -1.579797
 H         5.599420        -0.204540        -0.503875
 H         5.011589        -0.383472        -2.242034
 H         0.736879         1.862316        -1.118624
 H         3.373162         2.258234         0.534927
