19
Iteration:  4707
 C        -0.139660        -0.585168         0.038809
 C         1.334911        -0.062064        -0.014185
 C         2.510926        -0.960291        -0.503197
 C         3.418893         0.273121        -0.795022
 C         4.865942         0.282950        -1.000169
 O         2.613829         0.847070        -1.911159
 C         1.685260         1.149478        -0.915671
 C         2.703634         1.341028         0.186887
 O         1.903321         0.633740         1.144134
 H        -0.342210        -1.643209         0.407849
 H        -0.641329         0.035887         0.696677
 H        -0.502989        -0.255724        -0.903315
 H         2.793465        -1.613350         0.335804
 H         2.248133        -1.549198        -1.382237
 H         4.933740         1.030167        -1.746323
 H         5.445880         0.661695        -0.127210
 H         5.302201        -0.673656        -1.361859
 H         0.910282         1.782848        -1.175652
 H         3.364749         2.093777         0.651456
