19
Iteration:  2236charge 0 multiplicity 1
 C         0.054342        -0.669939        -0.065838
 C         1.342456        -0.043112        -0.011570
 C         2.547985        -0.843225        -0.346303
 C         3.395223         0.256144        -0.842944
 C         4.763957         0.105366        -1.244781
 O         2.623329         0.965008        -1.874088
 C         1.732027         1.225112        -0.882021
 C         2.713304         1.348095         0.305058
 O         1.772141         0.630136         1.207531
 H        -0.054930        -1.606538         0.504558
 H        -0.694244         0.104698         0.291762
 H        -0.221357        -1.002856        -1.046195
 H         2.747147        -1.270753         0.575642
 H         2.373785        -1.699311        -1.146626
 H         5.233229         0.961771        -1.606011
 H         5.269642        -0.238578        -0.405236
 H         4.579192        -0.703152        -1.965719
 H         0.949715         2.043533        -1.117622
 H         3.242782         2.187825         0.738867
