19
Iteration:   860
 C        -0.054837        -0.696085         0.028020
 C         1.315385        -0.112068        -0.070471
 C         2.566865        -0.896210        -0.343473
 C         3.437704         0.351107        -0.707694
 C         4.857590         0.128666        -1.176369
 O         2.675346         0.935352        -1.913361
 C         1.700500         1.212732        -0.937847
 C         2.611011         1.380048         0.208659
 O         1.812598         0.671496         1.167792
 H        -0.145871        -1.170133         1.022617
 H        -0.806707         0.177333         0.016090
 H        -0.176642        -1.239743        -0.838279
 H         2.805713        -1.730633         0.429526
 H         2.180074        -1.374174        -1.209824
 H         5.556485         0.938537        -1.223748
 H         5.178754        -0.641186        -0.383572
 H         4.711201        -0.437381        -2.078217
 H         0.894738         1.876463        -1.258776
 H         3.130586         2.313912         0.538613
