19
Iteration:  3905charge 0 multiplicity 1
 C         0.007815        -0.654458         0.042103
 C         1.329858        -0.019023        -0.106537
 C         2.488706        -0.881998        -0.407473
 C         3.475729         0.286899        -0.806024
 C         4.930124         0.128990        -1.172216
 O         2.603597         0.853513        -1.898645
 C         1.714908         1.292398        -0.898154
 C         2.635704         1.380218         0.266976
 O         1.736973         0.646683         1.210965
 H        -0.021316        -1.393935         0.811363
 H        -0.860206        -0.093459         0.267035
 H        -0.323674        -1.218408        -0.858758
 H         2.917860        -1.498651         0.408984
 H         2.327538        -1.657366        -1.234939
 H         5.314387         1.021820        -1.540639
 H         5.473596        -0.353585        -0.310213
 H         5.037518        -0.464580        -2.036635
 H         0.916179         1.957972        -1.326964
 H         3.114734         2.141925         0.895190
