19
Iteration:  2860
 C        -0.035722        -0.606159         0.141761
 C         1.327364        -0.046787        -0.015941
 C         2.532371        -0.899669        -0.449062
 C         3.404855         0.356027        -0.812434
 C         4.881671         0.142374        -0.871658
 O         2.560738         0.797860        -2.030873
 C         1.615187         1.205032        -1.021939
 C         2.677832         1.364346         0.123484
 O         1.925107         0.670125         1.164064
 H        -0.045601        -1.683400         0.636778
 H        -0.674411         0.076125         0.692011
 H        -0.461533        -0.771229        -0.880116
 H         2.834082        -1.519386         0.434898
 H         2.259275        -1.397563        -1.355689
 H         5.351248         0.909651        -1.542541
 H         5.362823        -0.032964         0.120074
 H         5.082243        -0.723994        -1.442085
 H         0.907535         1.921268        -1.372273
 H         3.111360         2.387388         0.535055
