19
Iteration:  3562
 C        -0.071515        -0.687974         0.002216
 C         1.253423        -0.082666        -0.143154
 C         2.480401        -0.919503        -0.374336
 C         3.476477         0.363353        -0.732324
 C         4.880071         0.146281        -1.208141
 O         2.687951         0.915677        -1.859349
 C         1.660429         1.268520        -0.903532
 C         2.670592         1.379290         0.284135
 O         1.840805         0.639915         1.197721
 H        -0.061360        -1.474086         0.737332
 H        -0.866725        -0.042116         0.434171
 H        -0.244740        -1.210239        -0.897807
 H         2.589727        -1.597827         0.521657
 H         2.429782        -1.437906        -1.313616
 H         5.607913         0.930137        -1.159808
 H         5.340454        -0.639581        -0.749174
 H         4.793327        -0.298669        -2.179961
 H         0.812898         1.859702        -1.327187
 H         3.284236         2.256187         0.521539
