19
Iteration:  4754charge 0 multiplicity 1
 C        -0.006529        -0.599294         0.101574
 C         1.327681        -0.083147        -0.092452
 C         2.521264        -0.911095        -0.466779
 C         3.434393         0.253068        -0.787570
 C         4.851896         0.169785        -1.068931
 O         2.608541         0.877936        -1.939208
 C         1.686252         1.234225        -0.872640
 C         2.693717         1.338410         0.281013
 O         1.784423         0.628033         1.085660
 H         0.053335        -1.119817         1.094681
 H        -0.780076         0.251676         0.233174
 H        -0.238038        -1.102224        -0.843963
 H         3.002767        -1.561698         0.316236
 H         2.469471        -1.432950        -1.446970
 H         5.231291         1.213760        -1.091001
 H         5.321280        -0.280556        -0.188827
 H         5.151067        -0.439459        -1.886773
 H         0.779035         1.939995        -1.118701
 H         2.958627         2.443247         0.547702
