19
Iteration:  1286charge 0 multiplicity 1
 C        -0.002021        -0.658733         0.318125
 C         1.291840        -0.063478        -0.105333
 C         2.513254        -0.954948        -0.470431
 C         3.386441         0.326947        -0.816341
 C         4.978188         0.123231        -0.909578
 O         2.566541         0.891314        -1.931846
 C         1.659926         1.316061        -1.074330
 C         2.666611         1.370519         0.100492
 O         1.786178         0.628134         1.050094
 H         0.239864        -1.362769         1.102409
 H        -0.711314         0.167327         0.688880
 H        -0.371668        -1.234319        -0.589729
 H         2.944308        -1.573327         0.345751
 H         2.314852        -1.497872        -1.533995
 H         5.592154         0.986099        -0.710810
 H         5.301796        -0.534501        -0.041345
 H         5.469984        -0.315409        -1.718148
 H         0.967216         2.032429        -1.386810
 H         3.012417         2.343451         0.522048
