19
Iteration:   761
 C        -0.128327        -0.563258         0.141918
 C         1.333503        -0.066512        -0.005754
 C         2.589109        -0.871453        -0.511307
 C         3.372095         0.338110        -0.793186
 C         4.934776         0.212911        -0.953686
 O         2.613168         0.912835        -1.939336
 C         1.649538         1.190819        -0.991544
 C         2.681852         1.306615         0.100289
 O         1.844226         0.505274         1.126691
 H        -0.005287        -1.443841         0.791586
 H        -0.728891         0.200132         0.708075
 H        -0.625350        -0.766810        -0.723518
 H         2.776605        -1.394741         0.503171
 H         2.482193        -1.390233        -1.397189
 H         5.403163         1.012285        -1.417407
 H         5.377233        -0.072342         0.094829
 H         5.159260        -0.607379        -1.614096
 H         0.853477         1.878109        -1.270582
 H         3.140797         2.160250         0.572215
