19
Iteration:  3287charge 0 multiplicity 1
 C         0.020192        -0.726864         0.161361
 C         1.286719        -0.032151        -0.141666
 C         2.532688        -0.898983        -0.461334
 C         3.361659         0.289425        -0.840092
 C         4.775910         0.122874        -0.951301
 O         2.674201         0.990554        -1.997785
 C         1.595963         1.293546        -0.949079
 C         2.669077         1.267121         0.181229
 O         1.902426         0.646133         1.218626
 H        -0.039294        -1.404998         0.966277
 H        -0.793631        -0.004263         0.272652
 H        -0.164759        -1.180059        -0.868267
 H         2.917924        -1.473667         0.314285
 H         2.471700        -1.622566        -1.253787
 H         5.294903         0.976665        -1.490103
 H         5.242547         0.045848        -0.041103
 H         4.928429        -0.803642        -1.403598
 H         0.971869         2.209341        -1.211149
 H         3.378974         2.130912         0.282727
