19
Iteration:   726
 C        -0.012696        -0.685316        -0.038323
 C         1.277050        -0.048365         0.033784
 C         2.506055        -0.946454        -0.422568
 C         3.409322         0.267431        -0.750840
 C         4.857421         0.171171        -1.162413
 O         2.652605         0.909937        -1.878205
 C         1.682875         1.225871        -0.933595
 C         2.716055         1.394791         0.226521
 O         1.791614         0.684686         1.187493
 H        -0.034422        -1.429737         0.807217
 H        -0.716031         0.056707         0.189779
 H        -0.204847        -1.306551        -0.949199
 H         2.904803        -1.632426         0.363370
 H         2.332812        -1.567314        -1.353150
 H         5.243076         1.163223        -1.239018
 H         5.406885        -0.358488        -0.327482
 H         4.925645        -0.432390        -2.061938
 H         0.935372         1.989939        -1.258900
 H         3.206906         2.293757         0.548032
