19
Iteration:  1823charge 0 multiplicity 1
 C        -0.091651        -0.650079         0.293442
 C         1.248293        -0.045835        -0.084494
 C         2.489537        -0.893038        -0.546198
 C         3.405803         0.326151        -0.858751
 C         4.898672         0.217719        -0.948928
 O         2.673550         0.843173        -1.992650
 C         1.724409         1.239067        -0.986582
 C         2.626446         1.360385         0.185484
 O         1.886077         0.558538         1.108313
 H         0.001479        -1.252199         1.217519
 H        -0.850383         0.057957         0.684697
 H        -0.507374        -1.115979        -0.566959
 H         2.747074        -1.548174         0.270587
 H         2.309578        -1.534207        -1.545065
 H         5.291935         1.173003        -0.679097
 H         5.177018        -0.411777        -0.166093
 H         5.537161        -0.086302        -1.813404
 H         1.069677         2.122575        -1.304305
 H         2.995670         2.345775         0.485907
