19
Iteration:  3577
 C        -0.047880        -0.728445        -0.017637
 C         1.310675         0.015458        -0.101369
 C         2.626077        -0.927936        -0.420461
 C         3.373463         0.261662        -0.743980
 C         4.837777         0.059675        -1.216377
 O         2.636361         0.903703        -1.826157
 C         1.699744         1.319937        -0.862496
 C         2.652219         1.401746         0.267839
 O         1.794113         0.670938         1.140431
 H         0.123112        -1.555418         0.789064
 H        -0.864623        -0.004930         0.168011
 H        -0.397238        -1.160298        -1.005195
 H         2.987110        -1.290042         0.569965
 H         2.538601        -1.761866        -1.160052
 H         5.313368         1.038182        -1.183763
 H         5.407680        -0.732355        -0.548845
 H         4.894297        -0.093467        -2.311247
 H         1.047293         2.145214        -1.017224
 H         2.978198         2.235166         0.899475
