19
Iteration:  4134
 C        -0.111327        -0.667894         0.136530
 C         1.323572        -0.124136        -0.052163
 C         2.438782        -0.950082        -0.460402
 C         3.393839         0.344597        -0.753090
 C         4.869282         0.272881        -0.965249
 O         2.701878         0.829752        -1.986014
 C         1.598511         1.200807        -1.041265
 C         2.652539         1.340261         0.124101
 O         1.943549         0.671102         1.196385
 H        -0.122965        -1.504161         0.876522
 H        -0.741584         0.062259         0.610905
 H        -0.585953        -0.797188        -0.833774
 H         2.875183        -1.362433         0.487161
 H         2.455695        -1.542852        -1.403585
 H         5.452287         1.160631        -0.830021
 H         5.548404        -0.441447        -0.309044
 H         5.102157        -0.007815        -2.020789
 H         0.921402         2.046530        -1.210132
 H         3.129588         2.207094         0.493888
