19
Iteration:  1239charge 0 multiplicity 1
 C        -0.088461        -0.623946         0.109159
 C         1.317663        -0.077448         0.019033
 C         2.454744        -0.974150        -0.407429
 C         3.490001         0.292878        -0.773610
 C         4.919505         0.261168        -1.082985
 O         2.632490         0.792567        -1.931052
 C         1.669836         1.234712        -0.951217
 C         2.650560         1.390670         0.168653
 O         1.856466         0.679685         1.097066
 H        -0.416787        -1.195378         1.058602
 H        -0.802620         0.260256        -0.073420
 H        -0.083672        -1.386602        -0.639438
 H         2.693881        -1.646355         0.564053
 H         2.297117        -1.573384        -1.356023
 H         5.442630         1.178066        -1.040424
 H         5.499526        -0.443892        -0.389133
 H         5.066338        -0.101633        -2.113024
 H         0.757939         1.893388        -1.206136
 H         3.100666         2.248091         0.650265
