19
Iteration:  3837
 C        -0.060868        -0.586717         0.205741
 C         1.319231        -0.051908        -0.113827
 C         2.535634        -0.929019        -0.622697
 C         3.334729         0.333293        -0.827118
 C         4.827095         0.234886        -0.835870
 O         2.584556         0.856087        -1.982850
 C         1.693291         1.263374        -0.898097
 C         2.734019         1.322115         0.179708
 O         1.902992         0.558927         1.111959
 H        -0.110985        -1.436871         0.926918
 H        -0.698972         0.100491         0.650532
 H        -0.530616        -0.953124        -0.683096
 H         2.832746        -1.687654         0.117069
 H         2.312921        -1.275963        -1.685347
 H         5.420507         0.927087        -1.372570
 H         5.156984         0.049828         0.157913
 H         5.309491        -0.560916        -1.318830
 H         0.905412         1.839547        -1.244607
 H         3.345894         2.159888         0.418832
