19
Iteration:   521charge 0 multiplicity 1
 C        -0.064767        -0.713827         0.041244
 C         1.223852        -0.030087        -0.108305
 C         2.506823        -0.846325        -0.470482
 C         3.419925         0.245703        -0.768035
 C         4.868020         0.185893        -1.103977
 O         2.665035         0.897552        -1.844404
 C         1.684364         1.180304        -0.903659
 C         2.696275         1.362379         0.233503
 O         1.839289         0.671174         1.173058
 H         0.063630        -1.361819         0.922597
 H        -0.941281        -0.001665        -0.010286
 H        -0.181411        -1.371617        -0.810107
 H         2.836654        -1.382959         0.473168
 H         2.589984        -1.604192        -1.221500
 H         5.294084         1.187788        -1.084245
 H         5.550644        -0.510118        -0.579345
 H         4.919118         0.009174        -2.195150
 H         0.882244         1.898374        -1.152618
 H         3.243002         2.266288         0.453392
