19
Iteration:  2757charge 0 multiplicity 1
 C        -0.096036        -0.518297        -0.015995
 C         1.304843        -0.110702        -0.020563
 C         2.609824        -0.979389        -0.276643
 C         3.319258         0.268203        -0.851195
 C         4.875379         0.225997        -1.072354
 O         2.586549         0.808741        -1.935182
 C         1.676372         1.202009        -0.942855
 C         2.711040         1.368266         0.185003
 O         1.890208         0.675948         1.167914
 H        -0.412042        -0.935364         0.916744
 H        -0.894257         0.266868        -0.217421
 H        -0.287834        -1.394032        -0.684500
 H         3.109311        -1.136472         0.628158
 H         2.525118        -1.838925        -0.983420
 H         5.354803         1.187555        -1.121192
 H         5.250585        -0.342900        -0.249016
 H         5.100171        -0.283097        -2.130693
 H         0.859673         1.911044        -1.297716
 H         3.300024         2.170024         0.443422
