19
Iteration:  3151charge 0 multiplicity 1
 C        -0.069362        -0.686852         0.338536
 C         1.227709        -0.092685        -0.090180
 C         2.503058        -0.911536        -0.563175
 C         3.384617         0.308875        -0.868082
 C         4.909760         0.109280        -0.873797
 O         2.730115         1.006430        -2.004639
 C         1.654665         1.225545        -1.006880
 C         2.614524         1.360240         0.112819
 O         1.890022         0.660286         1.076467
 H         0.167447        -1.312098         1.293629
 H        -0.822487         0.024258         0.760351
 H        -0.593395        -1.269230        -0.424120
 H         2.833764        -1.326571         0.457580
 H         2.327910        -1.613239        -1.447349
 H         5.307112         0.952399        -0.477524
 H         5.060978        -0.737750        -0.150794
 H         5.347181        -0.359936        -1.780473
 H         0.854967         1.838218        -1.356034
 H         3.239927         2.225873         0.460746
