19
Iteration:  4986
 C        -0.089797        -0.703709         0.193172
 C         1.301601        -0.074048        -0.062010
 C         2.454857        -0.878824        -0.555303
 C         3.387461         0.291344        -0.782281
 C         4.828610         0.175654        -0.991391
 O         2.720991         0.970367        -1.961314
 C         1.718940         1.191923        -0.959002
 C         2.729302         1.413445         0.256236
 O         1.839570         0.577651         1.116035
 H        -0.218286        -1.124218         1.177542
 H        -0.822781         0.109029         0.043280
 H        -0.459994        -1.428821        -0.580311
 H         2.911417        -1.510461         0.191277
 H         2.337902        -1.507327        -1.451845
 H         5.196236         1.151400        -1.140383
 H         5.326175        -0.379170        -0.219029
 H         4.863305        -0.366117        -1.947715
 H         0.962580         1.932099        -1.235128
 H         3.309354         2.203283         0.584584
