19
Iteration:  4803charge 0 multiplicity 1
 C         0.001977        -0.752620         0.154769
 C         1.308154        -0.052198        -0.112860
 C         2.471560        -0.917918        -0.443690
 C         3.411447         0.312006        -0.806781
 C         4.858638         0.102070        -0.968453
 O         2.688580         0.985045        -1.962438
 C         1.640515         1.317157        -0.960943
 C         2.647689         1.432071         0.134142
 O         1.821266         0.577058         1.148644
 H         0.204173        -0.941837         1.219432
 H        -0.886144        -0.156614         0.199112
 H        -0.171577        -1.652950        -0.481905
 H         2.600740        -1.531022         0.438986
 H         2.255319        -1.542623        -1.321712
 H         5.507504         0.886769        -0.608690
 H         5.155401        -0.877149        -0.491779
 H         5.045965        -0.050066        -2.096947
 H         1.135665         2.200113        -1.101639
 H         3.256573         2.226179         0.397832
