19
Iteration:   881charge 0 multiplicity 1
 C        -0.061106        -0.668701         0.006864
 C         1.278156        -0.047046         0.017592
 C         2.577622        -0.882075        -0.483564
 C         3.452246         0.283947        -0.805650
 C         4.885689         0.089464        -1.170028
 O         2.683085         0.817405        -1.888851
 C         1.640219         1.263412        -0.925923
 C         2.617265         1.447702         0.290034
 O         1.806096         0.673286         1.191986
 H        -0.176805        -1.167720         1.024494
 H        -0.944317         0.067605        -0.123939
 H         0.011520        -1.297844        -0.843544
 H         2.929349        -1.294571         0.569576
 H         2.547648        -1.611036        -1.268623
 H         5.173593         1.073487        -1.094110
 H         5.476107        -0.631066        -0.458475
 H         4.863009        -0.207574        -2.193659
 H         0.864288         1.914275        -1.347377
 H         3.090145         2.299043         0.828997
