19
Iteration:  1557charge 0 multiplicity 1
 C        -0.053464        -0.555480         0.012216
 C         1.382299        -0.097871         0.012694
 C         2.630277        -0.930280        -0.396664
 C         3.440456         0.315019        -0.731512
 C         4.826672         0.204040        -1.104388
 O         2.574489         0.748148        -1.931211
 C         1.581188         1.199044        -0.907335
 C         2.671967         1.407760         0.235920
 O         1.838849         0.665824         1.099457
 H        -0.299199        -1.248762         0.796746
 H        -0.657729         0.381361        -0.097432
 H        -0.125341        -0.958974        -1.022606
 H         3.001089        -1.493328         0.490346
 H         2.543327        -1.579291        -1.253566
 H         5.151128         0.995318        -1.773077
 H         5.586037         0.270996        -0.204119
 H         4.898035        -0.742631        -1.579220
 H         0.708874         1.764662        -1.126198
 H         3.168034         2.311343         0.720418
