19
Iteration:  2830charge 0 multiplicity 1
 C         0.020572        -0.717356         0.304497
 C         1.274478        -0.048226        -0.092534
 C         2.486487        -0.958676        -0.436206
 C         3.421834         0.344694        -0.873993
 C         4.872113         0.067268        -0.830716
 O         2.645185         0.970974        -1.958952
 C         1.594172         1.274048        -1.081909
 C         2.682416         1.306837         0.079390
 O         1.876892         0.741262         1.050699
 H         0.163705        -1.664784         0.810772
 H        -0.587993        -0.135750         0.947146
 H        -0.621925        -0.998834        -0.572647
 H         2.840702        -1.593106         0.478264
 H         2.295867        -1.577684        -1.334374
 H         5.444924         0.932806        -1.246909
 H         4.989577        -0.171861         0.209251
 H         5.102273        -0.822452        -1.478315
 H         0.886223         2.071547        -1.464544
 H         3.252054         2.187113         0.441365
