19
Iteration:  1147
 C         0.007845        -0.682391         0.236401
 C         1.334681        -0.077969        -0.020968
 C         2.512564        -0.899355        -0.462058
 C         3.398099         0.312490        -0.801724
 C         4.897245         0.123747        -0.884765
 O         2.563836         0.927419        -1.975580
 C         1.671078         1.276567        -1.026793
 C         2.700283         1.352721         0.084460
 O         1.846209         0.617218         1.048346
 H        -0.089014        -1.633991         0.724534
 H        -0.475796         0.017919         0.885288
 H        -0.610180        -0.857042        -0.695387
 H         2.673744        -1.638426         0.273714
 H         2.269212        -1.336204        -1.457390
 H         5.439044         1.057381        -1.393585
 H         5.108574         0.177450         0.186633
 H         5.249925        -0.844828        -1.368874
 H         0.870152         2.006941        -1.277368
 H         3.085621         2.303037         0.546125
