19
Iteration:  2600charge 0 multiplicity 1
 C        -0.070767        -0.515380         0.150043
 C         1.304303        -0.083286        -0.025424
 C         2.535393        -1.001308        -0.382120
 C         3.407714         0.301202        -0.723092
 C         4.889692         0.224347        -1.077956
 O         2.618678         0.806821        -1.989776
 C         1.680628         1.287027        -1.008128
 C         2.695876         1.324732         0.191252
 O         1.815357         0.627263         1.120171
 H        -0.107451        -1.397404         0.847091
 H        -0.802166         0.192178         0.352765
 H        -0.339084        -0.844738        -0.863392
 H         2.789009        -1.766109         0.423514
 H         2.490288        -1.647668        -1.186270
 H         5.159672         1.307670        -1.294672
 H         5.472586        -0.312587        -0.270412
 H         5.099950        -0.278210        -2.005931
 H         0.966781         2.056743        -1.167464
 H         3.351752         2.129949         0.673423
