19
Iteration:  1976
 C        -0.048734        -0.567836         0.263346
 C         1.358080        -0.108981        -0.089876
 C         2.474122        -1.017693        -0.661592
 C         3.328135         0.257341        -0.894469
 C         4.807103         0.214241        -0.831506
 O         2.694212         0.969362        -2.007081
 C         1.643363         1.285091        -0.942946
 C         2.609669         1.361266         0.154187
 O         1.979967         0.531350         1.155250
 H         0.212807        -1.306719         1.133967
 H        -0.574011         0.434886         0.612247
 H        -0.644436        -1.190507        -0.417998
 H         2.701784        -1.613433         0.211219
 H         2.062336        -1.592296        -1.564012
 H         5.159037         1.246773        -0.956622
 H         5.230392        -0.120474         0.139905
 H         5.394161        -0.421211        -1.660962
 H         0.874993         2.058402        -1.387150
 H         3.082830         2.244103         0.634404
