19
Iteration:  1657
 C        -0.115072        -0.682273         0.264040
 C         1.284573        -0.152491        -0.024095
 C         2.577378        -0.986813        -0.447068
 C         3.427110         0.328118        -0.792204
 C         4.928778         0.144586        -0.839114
 O         2.618180         0.968711        -2.113633
 C         1.611946         1.299581        -0.987067
 C         2.630261         1.331936         0.080242
 O         1.889858         0.673059         1.095716
 H        -0.027594        -1.290503         1.158184
 H        -0.693879         0.136161         0.639351
 H        -0.574252        -1.103286        -0.711762
 H         2.911007        -1.665463         0.357171
 H         2.516523        -1.560367        -1.510985
 H         5.460143         1.173252        -0.750674
 H         5.297459        -0.568914        -0.092972
 H         5.120186        -0.195395        -1.859790
 H         0.847652         2.014972        -1.162134
 H         3.215580         2.237596         0.245503
