19
Iteration:  3219
 C        -0.101221        -0.559428         0.058788
 C         1.288640        -0.112939        -0.022724
 C         2.595468        -1.012693        -0.326214
 C         3.376260         0.243589        -0.709815
 C         4.851373         0.242747        -1.160632
 O         2.639065         0.928547        -1.942556
 C         1.724329         1.238031        -0.951928
 C         2.678219         1.356219         0.172721
 O         1.845461         0.628352         1.102464
 H        -0.401237        -1.528233         0.578722
 H        -0.911255         0.010211         0.382534
 H        -0.393619        -0.751565        -0.998841
 H         2.874654        -1.478914         0.690648
 H         2.487754        -1.810370        -1.034673
 H         5.086116         1.062544        -1.719887
 H         5.520951         0.276174        -0.258069
 H         5.131233        -0.690977        -1.622873
 H         0.950844         1.964190        -0.936084
 H         3.289168         2.127054         0.725841
