19
Iteration:  2994charge 0 multiplicity 1
 C         0.030231        -0.688213         0.315453
 C         1.273984         0.009345        -0.128338
 C         2.493164        -0.882324        -0.500020
 C         3.327525         0.280017        -0.783443
 C         4.872036         0.112545        -0.859738
 O         2.630996         0.887698        -2.047087
 C         1.693809         1.306206        -1.064895
 C         2.710834         1.336651         0.168699
 O         1.827353         0.646758         1.060473
 H         0.381980        -1.430639         1.038141
 H        -0.632767         0.060295         0.898579
 H        -0.612221        -1.194827        -0.497755
 H         2.834376        -1.480699         0.357642
 H         2.372231        -1.596879        -1.369442
 H         5.528904         1.030032        -1.021573
 H         5.194391        -0.214960         0.114934
 H         5.134014        -0.584799        -1.628886
 H         0.756273         1.844519        -1.472510
 H         3.229819         2.166525         0.671083
