19
Iteration:  3195
 C        -0.068341        -0.604692         0.128715
 C         1.262884        -0.033916        -0.116990
 C         2.503119        -0.889162        -0.489962
 C         3.369662         0.280836        -0.878109
 C         4.929496         0.251447        -0.936316
 O         2.594796         0.800359        -1.953247
 C         1.655320         1.196346        -0.944071
 C         2.752622         1.349644         0.167495
 O         1.903935         0.624876         1.184696
 H        -0.248147        -1.519851         0.807721
 H        -0.769240         0.118555         0.557573
 H        -0.586618        -0.824812        -0.820918
 H         2.825945        -1.513702         0.435893
 H         2.207268        -1.571984        -1.328832
 H         5.291441         1.203313        -1.145443
 H         5.409867        -0.112321         0.011433
 H         5.266694        -0.458323        -1.717753
 H         0.899637         1.886663        -1.213199
 H         3.211272         2.215810         0.627619
