19
Iteration:  2153
 C        -0.105496        -0.516605         0.327473
 C         1.297387        -0.120054        -0.187794
 C         2.409204        -0.949206        -0.637723
 C         3.439656         0.344312        -0.846863
 C         4.949521         0.289904        -0.831046
 O         2.637495         0.910753        -1.998342
 C         1.614407         1.253075        -0.857574
 C         2.747497         1.286743         0.144992
 O         1.864519         0.467598         1.060595
 H         0.155405        -1.155429         1.216952
 H        -0.729190         0.307357         0.726243
 H        -0.709970        -1.088708        -0.381212
 H         2.660956        -1.727784         0.109191
 H         2.416273        -1.363681        -1.591403
 H         5.363395         1.285914        -1.037451
 H         5.403564        -0.374447         0.003684
 H         5.367176        -0.188857        -1.772356
 H         0.830250         1.951153        -1.110812
 H         3.324784         2.073198         0.583690
