19
Iteration:  4786charge 0 multiplicity 1
 C        -0.097727        -0.799969         0.186662
 C         1.233928        -0.035761        -0.045364
 C         2.444652        -0.847830        -0.479450
 C         3.394533         0.326409        -0.782277
 C         4.904022         0.069563        -1.047246
 O         2.733810         0.980128        -1.913307
 C         1.682231         1.269899        -0.976847
 C         2.686237         1.350905         0.212032
 O         1.886916         0.660533         1.084413
 H        -0.218654        -1.224153         1.209090
 H        -0.946697        -0.099063         0.002887
 H        -0.074873        -1.614656        -0.537844
 H         2.930983        -1.525811         0.272698
 H         2.358678        -1.395729        -1.436083
 H         5.376384         1.010429        -0.715835
 H         5.236103        -0.718567        -0.371759
 H         5.053325        -0.073435        -2.096487
 H         0.779486         1.817892        -1.408330
 H         2.946362         2.416115         0.624097
