19
Iteration:  1789charge 0 multiplicity 1
 C        -0.025587        -0.708808         0.277012
 C         1.308607        -0.068248        -0.150646
 C         2.467648        -0.974938        -0.558699
 C         3.374552         0.247734        -0.855595
 C         4.858676         0.122961        -0.883428
 O         2.652171         0.964014        -1.931323
 C         1.661644         1.228672        -0.956394
 C         2.636431         1.411266         0.126480
 O         1.926728         0.707594         1.096546
 H         0.189445        -1.555380         0.936372
 H        -0.661493         0.062331         0.673391
 H        -0.619435        -1.230757        -0.531676
 H         2.816191        -1.632951         0.185919
 H         2.354985        -1.558000        -1.599257
 H         5.180611         1.178045        -0.980280
 H         5.047260        -0.034058         0.128799
 H         5.391010        -0.558465        -1.549645
 H         0.911027         1.969845        -1.231621
 H         3.089181         2.349842         0.423401
