19
Iteration:  3585charge 0 multiplicity 1
 C         0.002354        -0.706228        -0.039810
 C         1.309803        -0.047759        -0.008294
 C         2.598466        -0.886245        -0.402782
 C         3.400327         0.278386        -0.815189
 C         4.810690         0.062119        -1.175573
 O         2.611268         0.922126        -1.869614
 C         1.748334         1.336167        -0.888644
 C         2.676715         1.398094         0.276646
 O         1.721983         0.631782         1.149182
 H        -0.163504        -1.512488         0.730181
 H        -0.774096        -0.016374         0.388885
 H        -0.115771        -1.198495        -0.966378
 H         3.053696        -1.201837         0.602441
 H         2.441105        -1.640563        -1.155048
 H         5.292362         0.974584        -1.050943
 H         5.495686        -0.605719        -0.739404
 H         4.908743        -0.309856        -2.184318
 H         0.978763         2.075013        -1.067685
 H         3.326628         2.198526         0.706755
