19
Iteration:  4241
 C        -0.123077        -0.607881         0.081838
 C         1.363667        -0.132365        -0.034836
 C         2.592803        -0.918419        -0.422554
 C         3.399220         0.305695        -0.848572
 C         4.942374         0.241399        -1.065935
 O         2.597556         0.837558        -1.936927
 C         1.687585         1.201436        -0.837204
 C         2.711704         1.335402         0.186768
 O         1.759669         0.676440         1.107274
 H        -0.475138        -1.373590         0.928830
 H        -0.713076         0.285195         0.014900
 H        -0.363510        -1.230912        -0.817929
 H         3.074124        -1.384000         0.413348
 H         2.423284        -1.625783        -1.228744
 H         5.110108         1.035870        -1.788285
 H         5.573749         0.428715        -0.094967
 H         5.132111        -0.762964        -1.501495
 H         0.868123         1.898318        -0.923696
 H         3.104583         2.235872         0.647910
