19
Iteration:  3318charge 0 multiplicity 1
 C        -0.036618        -0.662822         0.332032
 C         1.242294        -0.084662        -0.117400
 C         2.474879        -0.884346        -0.600186
 C         3.430655         0.305720        -0.849464
 C         4.962813         0.227185        -0.873506
 O         2.638658         0.871742        -1.911608
 C         1.621157         1.252691        -0.968726
 C         2.686915         1.351032         0.163896
 O         1.866317         0.587049         1.030973
 H        -0.163337        -1.413285         1.180308
 H        -0.715562         0.143510         0.523119
 H        -0.664053        -1.124479        -0.514074
 H         2.730737        -1.824692        -0.010983
 H         2.152379        -1.118101        -1.638886
 H         5.497085         1.184591        -0.754625
 H         5.186460        -0.395783        -0.008305
 H         5.408524        -0.314303        -1.690328
 H         0.942585         2.030157        -1.388593
 H         3.304304         2.267721         0.438082
