19
Iteration:  3296charge 0 multiplicity 1
 C         0.004198        -0.676471         0.197526
 C         1.262302        -0.048168        -0.095145
 C         2.520414        -0.959712        -0.543391
 C         3.326887         0.293833        -0.833250
 C         4.828420         0.143692        -0.881437
 O         2.658109         0.992619        -2.035404
 C         1.656537         1.316578        -0.964607
 C         2.680075         1.291348         0.172405
 O         1.924020         0.622187         1.159348
 H         0.111240        -1.460464         1.061610
 H        -0.863268        -0.088742         0.429193
 H        -0.390674        -1.347142        -0.649246
 H         2.734309        -1.407410         0.486808
 H         2.422539        -1.648460        -1.381779
 H         5.266065         1.051800        -1.284641
 H         5.262785        -0.094808         0.097136
 H         5.116922        -0.649460        -1.563861
 H         0.876230         2.045904        -1.244230
 H         3.148736         2.269957         0.523687
