19
Iteration:  2237
 C         0.049787        -0.666318        -0.063490
 C         1.340217        -0.050079        -0.020295
 C         2.548804        -0.836119        -0.337839
 C         3.391824         0.256187        -0.845563
 C         4.770351         0.106102        -1.244739
 O         2.622092         0.970751        -1.865753
 C         1.731724         1.219940        -0.885000
 C         2.713089         1.341595         0.299449
 O         1.775809         0.631834         1.201885
 H        -0.048043        -1.605749         0.512320
 H        -0.706857         0.084099         0.308391
 H        -0.190049        -0.962524        -1.037756
 H         2.739320        -1.283947         0.595367
 H         2.356896        -1.700971        -1.149641
 H         5.225004         0.948753        -1.608085
 H         5.290924        -0.233942        -0.390368
 H         4.581473        -0.696511        -1.970762
 H         0.944424         2.027286        -1.103003
 H         3.234956         2.167000         0.732473
