19
Iteration:  4282charge 0 multiplicity 1
 C        -0.063026        -0.620001         0.044119
 C         1.306293        -0.111677         0.002925
 C         2.506670        -0.892623        -0.465784
 C         3.404943         0.348988        -0.721066
 C         4.786894         0.284473        -1.017287
 O         2.643325         0.784267        -1.930781
 C         1.673236         1.151762        -0.902794
 C         2.688473         1.379195         0.164908
 O         1.896373         0.613350         1.105934
 H        -0.089571        -1.519523         0.679005
 H        -0.596317         0.218709         0.483088
 H        -0.399866        -0.813546        -0.985824
 H         2.812390        -1.528838         0.369647
 H         2.411513        -1.500732        -1.397027
 H         5.219314         1.113323        -1.644169
 H         5.424936         0.287566        -0.153726
 H         5.069666        -0.649594        -1.484120
 H         0.962005         2.007654        -1.160913
 H         3.250592         2.370491         0.325258
