19
Iteration:  1249
 C        -0.108693        -0.648400         0.180936
 C         1.285637        -0.107949         0.038509
 C         2.529526        -0.993754        -0.420423
 C         3.385081         0.306737        -0.751371
 C         4.872994         0.239551        -1.052203
 O         2.667469         0.853968        -1.950852
 C         1.671050         1.217425        -1.050090
 C         2.639400         1.401673         0.184997
 O         1.916843         0.677309         1.107068
 H        -0.538546        -1.196905         1.093199
 H        -0.834201         0.164622        -0.108517
 H        -0.209188        -1.282969        -0.687722
 H         2.922549        -1.780988         0.392978
 H         2.362245        -1.529927        -1.367775
 H         5.379525         1.196311        -0.836433
 H         5.224572        -0.553625        -0.325148
 H         5.060932        -0.086358        -2.118121
 H         1.145693         2.140583        -1.505029
 H         3.182384         2.280638         0.492493
