19
Iteration:  2154
 C        -0.101528        -0.516393         0.330333
 C         1.295773        -0.124381        -0.185829
 C         2.416453        -0.953198        -0.648393
 C         3.434258         0.344067        -0.845319
 C         4.945177         0.283035        -0.835465
 O         2.634322         0.910601        -1.991577
 C         1.616648         1.265676        -0.868929
 C         2.757457         1.290322         0.149030
 O         1.860714         0.467916         1.062029
 H         0.146871        -1.150317         1.216587
 H        -0.718672         0.311604         0.688072
 H        -0.743270        -1.116524        -0.395420
 H         2.690844        -1.724604         0.132846
 H         2.420880        -1.393951        -1.537214
 H         5.340843         1.310805        -1.041024
 H         5.369132        -0.386367        -0.015977
 H         5.376119        -0.164223        -1.743768
 H         0.835133         1.923490        -1.103055
 H         3.331785         2.094774         0.606417
