19
Iteration:  4773charge 0 multiplicity 1
 C        -0.070524        -0.705282         0.143259
 C         1.311820        -0.092731        -0.031886
 C         2.536271        -0.911662        -0.588815
 C         3.428853         0.316175        -0.769189
 C         4.879044         0.151552        -1.017152
 O         2.675622         0.926443        -1.911948
 C         1.639044         1.259642        -0.999298
 C         2.637153         1.405673         0.209520
 O         1.804305         0.688407         1.189694
 H        -0.100635        -1.244723         1.153643
 H        -0.889305        -0.082782         0.014904
 H        -0.244251        -1.522480        -0.538101
 H         2.767939        -1.527648         0.320975
 H         2.307494        -1.556834        -1.429648
 H         5.617259         0.919592        -1.004331
 H         5.296677        -0.728668        -0.453087
 H         4.972862        -0.309887        -2.047573
 H         1.026343         2.042091        -1.329180
 H         3.565790         1.939813         0.604793
