19
Iteration:  2580charge 0 multiplicity 1
 C        -0.118092        -0.598060         0.017886
 C         1.310918        -0.068190        -0.016782
 C         2.515809        -0.915465        -0.409108
 C         3.409525         0.215948        -0.771076
 C         4.860755         0.223973        -1.213053
 O         2.721429         0.833226        -1.844667
 C         1.704606         1.135165        -0.908377
 C         2.685434         1.409096         0.202939
 O         1.820908         0.703758         1.214796
 H        -0.351556        -1.183201         0.983580
 H        -0.775449         0.275759        -0.061030
 H        -0.546052        -1.182449        -0.869012
 H         3.013033        -1.564805         0.349486
 H         2.238835        -1.602168        -1.162396
 H         5.116213         1.288161        -1.518191
 H         5.482614        -0.301608        -0.514431
 H         4.914462        -0.446483        -2.084769
 H         0.981987         1.818774        -1.378836
 H         3.168528         2.311552         0.605985
