19
Iteration:  4061charge 0 multiplicity 1
 C        -0.038670        -0.689222         0.049238
 C         1.332504        -0.082151         0.009395
 C         2.530920        -0.939919        -0.437338
 C         3.367932         0.335065        -0.792109
 C         4.877988         0.109781        -1.057028
 O         2.670673         0.929832        -1.904384
 C         1.543594         1.256546        -0.881230
 C         2.627322         1.374690         0.173549
 O         1.907039         0.667697         1.134015
 H        -0.285002        -1.370670         0.812726
 H        -0.818544         0.155571        -0.013017
 H        -0.046707        -1.093298        -0.971535
 H         2.855137        -1.477616         0.479942
 H         2.436792        -1.512583        -1.340466
 H         5.297499         0.791518        -1.723891
 H         5.477290         0.301974        -0.198711
 H         5.161350        -0.869724        -1.413603
 H         0.826862         1.818589        -1.409796
 H         3.294111         2.157673         0.427957
