19
Iteration:   581charge 0 multiplicity 1
 C        -0.052717        -0.660377         0.080472
 C         1.292330        -0.101751        -0.132572
 C         2.474431        -0.959406        -0.451272
 C         3.406807         0.358659        -0.737457
 C         4.945895         0.203088        -1.003799
 O         2.596658         0.937670        -1.898713
 C         1.658133         1.233524        -0.887977
 C         2.669107         1.381935         0.156635
 O         1.885303         0.594579         1.123624
 H        -0.104856        -1.526571         0.749546
 H        -0.705387         0.003545         0.563857
 H        -0.480524        -1.063012        -0.906762
 H         2.696209        -1.680545         0.314231
 H         2.457271        -1.376255        -1.521914
 H         5.487989         1.043642        -1.504556
 H         5.490272        -0.011482        -0.129048
 H         4.901347        -0.754518        -1.529591
 H         0.906614         1.928915        -1.250358
 H         3.253780         2.290983         0.421091
