19
Iteration:   426charge 0 multiplicity 1
 C        -0.026219        -0.696240         0.170099
 C         1.301981        -0.067820        -0.118253
 C         2.494375        -0.935900        -0.528121
 C         3.382626         0.280218        -0.844516
 C         4.886210         0.225675        -0.962497
 O         2.670682         0.896028        -1.942763
 C         1.651090         1.250170        -0.897179
 C         2.648059         1.342558         0.189625
 O         1.849970         0.663953         1.124027
 H         0.108665        -1.686035         0.628932
 H        -0.848328         0.067450         0.573657
 H        -0.608734        -0.912460        -0.687440
 H         2.918960        -1.783323         0.228677
 H         2.496964        -1.492917        -1.433303
 H         5.272261         1.055506        -1.560881
 H         5.325570         0.356843         0.119960
 H         5.274461        -0.706635        -1.393565
 H         0.868477         1.994502        -1.083249
 H         3.145948         2.200909         0.683742
