19
Iteration:   891charge 0 multiplicity 1
 C        -0.055694        -0.655848         0.029020
 C         1.297931        -0.012146        -0.098905
 C         2.588334        -0.892606        -0.382053
 C         3.431781         0.244162        -0.780949
 C         4.901839         0.164970        -1.156893
 O         2.611534         0.870308        -1.866549
 C         1.665435         1.229203        -0.842893
 C         2.639988         1.362355         0.218268
 O         1.806524         0.683234         1.110642
 H        -0.162175        -1.274706         0.996423
 H        -0.901660         0.087854        -0.075093
 H        -0.078311        -1.364408        -0.820734
 H         2.842350        -1.534535         0.524279
 H         2.246665        -1.587912        -1.089650
 H         5.459032         1.021208        -1.062930
 H         5.431699        -0.568988        -0.401040
 H         5.048712        -0.271773        -2.123279
 H         0.933274         1.976139        -1.152889
 H         3.196300         2.219510         0.564902
