19
Iteration:  1508
 C        -0.076913        -0.639155         0.160304
 C         1.306508        -0.017484        -0.073874
 C         2.516387        -0.950407        -0.342690
 C         3.372104         0.254689        -0.822749
 C         4.822289         0.244505        -0.992815
 O         2.653270         0.854459        -1.938997
 C         1.693102         1.231910        -0.997629
 C         2.734029         1.326274         0.122942
 O         1.829868         0.651608         1.096295
 H         0.307003        -1.471151         0.784172
 H        -0.808658         0.004735         0.611069
 H        -0.465940        -1.026154        -0.792918
 H         2.902597        -1.530884         0.573336
 H         2.459974        -1.584175        -1.301955
 H         5.147130         1.247564        -1.375188
 H         5.296916         0.177397        -0.092103
 H         5.216265        -0.529015        -1.708058
 H         0.843116         1.912812        -1.320635
 H         3.301184         2.132794         0.550980
