19
Iteration:  3088charge 0 multiplicity 1
 C        -0.092005        -0.633568        -0.031791
 C         1.314762        -0.054849         0.098970
 C         2.469330        -0.884530        -0.322293
 C         3.445135         0.256508        -0.746305
 C         4.869392         0.189574        -1.137262
 O         2.626802         0.840405        -1.950264
 C         1.660389         1.222913        -0.911827
 C         2.721579         1.325964         0.125622
 O         1.835650         0.681280         1.175258
 H        -0.346221        -1.401827         0.764382
 H        -0.718003         0.185712        -0.051833
 H        -0.047860        -1.099677        -1.012704
 H         2.963674        -1.443463         0.530772
 H         2.409941        -1.541635        -1.169509
 H         5.344824         1.091864        -1.619319
 H         5.642271         0.005773        -0.274890
 H         5.007940        -0.590736        -1.945504
 H         0.874344         1.879042        -1.133651
 H         3.145889         2.338420         0.508687
