19
Iteration:   986
 C        -0.092871        -0.690011         0.220205
 C         1.288592        -0.033859        -0.115804
 C         2.439246        -0.957049        -0.491048
 C         3.394332         0.273369        -0.845194
 C         4.884383         0.207089        -0.911745
 O         2.703182         0.947506        -1.943943
 C         1.606432         1.227638        -0.939800
 C         2.669873         1.376525         0.120597
 O         1.928079         0.633467         1.086860
 H         0.057190        -1.660928         0.692237
 H        -0.544131         0.054695         0.784728
 H        -0.537955        -0.842514        -0.800623
 H         2.800483        -1.524281         0.393359
 H         2.319151        -1.774480        -1.238201
 H         5.483427         0.992745        -1.488910
 H         5.289782         0.141063         0.157799
 H         5.148244        -0.767460        -1.417009
 H         0.697155         1.841837        -1.105604
 H         3.250328         2.239897         0.373169
