19
Iteration:  4197
 C        -0.072530        -0.789444         0.209882
 C         1.229675        -0.075775        -0.020201
 C         2.506340        -0.893748        -0.445588
 C         3.380256         0.319803        -0.800349
 C         4.872512         0.116616        -0.982552
 O         2.737220         0.944568        -1.994487
 C         1.656723         1.268878        -0.951037
 C         2.690371         1.428061         0.186185
 O         1.857722         0.650697         1.014666
 H         0.135970        -1.454857         1.167817
 H        -0.917962        -0.199862         0.500785
 H        -0.427155        -1.472157        -0.583078
 H         2.843479        -1.426339         0.412735
 H         2.330505        -1.564326        -1.291779
 H         5.167718         1.171000        -1.064049
 H         5.287975        -0.161033         0.028081
 H         5.148647        -0.456553        -1.874563
 H         0.971510         1.991929        -1.400934
 H         3.125358         2.395150         0.507999
