19
Iteration:   712
 C        -0.066395        -0.709740         0.056119
 C         1.318911         0.042464        -0.048006
 C         2.564922        -0.819416        -0.372981
 C         3.404927         0.285904        -0.750328
 C         4.856254         0.128656        -1.135889
 O         2.678276         0.864337        -1.904288
 C         1.656344         1.269917        -0.883368
 C         2.677884         1.243335         0.202426
 O         1.784432         0.677663         1.183347
 H        -0.143510        -1.569975         0.745933
 H        -1.012593        -0.287442        -0.246966
 H         0.170776        -1.135025        -1.069048
 H         2.856721        -1.348818         0.476920
 H         2.281139        -1.365035        -1.379878
 H         5.314430         1.176747        -1.376668
 H         5.522525        -0.439330        -0.607431
 H         4.849076        -0.193633        -2.223325
 H         0.859183         1.975269        -1.147041
 H         3.285827         2.060575         0.650848
