19
Iteration:   363
 C        -0.047073        -0.675096        -0.028100
 C         1.309726        -0.061763        -0.019491
 C         2.578374        -0.925525        -0.355662
 C         3.432423         0.323906        -0.783010
 C         4.934846         0.152810        -1.177659
 O         2.636998         0.859772        -1.913256
 C         1.623212         1.260572        -0.935730
 C         2.589042         1.417061         0.267083
 O         1.803216         0.622465         1.220507
 H        -0.169545        -1.347039         0.843434
 H        -0.779244         0.192772        -0.037377
 H        -0.123881        -1.220040        -1.002604
 H         2.961218        -1.359332         0.605527
 H         2.493539        -1.561440        -1.262589
 H         5.356610         1.151503        -1.405439
 H         5.469059        -0.387183        -0.310654
 H         5.149504        -0.296631        -2.142683
 H         0.703987         1.741129        -1.340367
 H         3.187601         2.302352         0.626673
