19
Iteration:   203charge 0 multiplicity 1
 C        -0.001306        -0.625671         0.001669
 C         1.357966        -0.048732        -0.010703
 C         2.513436        -0.936559        -0.409088
 C         3.416180         0.304858        -0.775883
 C         4.862352         0.227327        -1.149218
 O         2.635713         0.914275        -1.880970
 C         1.676558         1.160994        -0.923172
 C         2.617902         1.291326         0.225426
 O         1.786076         0.680296         1.210342
 H        -0.172158        -1.387691         0.764100
 H        -0.798220         0.015009        -0.008696
 H         0.030977        -1.205135        -1.000752
 H         2.947812        -1.326971         0.440403
 H         2.466588        -1.719046        -1.266967
 H         5.104304         0.925860        -1.992044
 H         5.479780         0.481694        -0.386399
 H         5.064785        -0.888552        -1.388484
 H         0.869549         1.802696        -1.376876
 H         3.279320         2.146213         0.538594
