19
Iteration:   214charge 0 multiplicity 1
 C        -0.087135        -0.703535        -0.019705
 C         1.278674        -0.154865         0.052855
 C         2.552598        -0.924951        -0.344921
 C         3.405568         0.336207        -0.794399
 C         4.900848         0.228014        -1.137328
 O         2.668043         0.899588        -1.920430
 C         1.678251         1.231311        -0.900415
 C         2.713100         1.321072         0.222273
 O         1.791705         0.719337         1.147741
 H        -0.167651        -1.431769         0.785820
 H        -0.797487         0.024082         0.068163
 H        -0.215565        -1.248782        -1.030897
 H         2.954759        -1.543005         0.376906
 H         2.263256        -1.576677        -1.281351
 H         5.150369         0.955348        -1.952295
 H         5.533072         0.272678        -0.352503
 H         5.048547        -0.785648        -1.689783
 H         0.845990         1.987218        -1.044948
 H         3.069041         2.284167         0.641852
