19
Iteration:   105charge 0 multiplicity 1
 C        -0.096863        -0.702220         0.201126
 C         1.264459        -0.070316        -0.152248
 C         2.507988        -0.867600        -0.527229
 C         3.440149         0.312000        -0.816884
 C         4.932968         0.198973        -0.936718
 O         2.641451         0.939469        -1.980368
 C         1.692088         1.222340        -0.930646
 C         2.607647         1.374252         0.202784
 O         1.873576         0.561187         1.125933
 H         0.195225        -1.607830         0.765789
 H        -0.761749        -0.049351         0.720348
 H        -0.485379        -1.117228        -0.813606
 H         2.830677        -1.465467         0.293741
 H         2.233816        -1.445315        -1.512044
 H         5.270073        -0.624609        -1.706838
 H         5.332374         1.125993        -1.226448
 H         5.319402        -0.105818         0.126045
 H         1.026796         2.140616        -0.974106
 H         2.959396         2.365091         0.600579
