19
Iteration:  1813charge 0 multiplicity 1
 C        -0.018356        -0.637248         0.347617
 C         1.300023        -0.053750        -0.038414
 C         2.443228        -0.914285        -0.566366
 C         3.407459         0.296208        -0.816819
 C         4.914393         0.245125        -0.851327
 O         2.616767         0.915362        -2.043037
 C         1.696025         1.249317        -1.040247
 C         2.717780         1.283586         0.122258
 O         1.798458         0.575306         1.082889
 H         0.088798        -1.492625         1.057329
 H        -0.713062         0.210615         0.582051
 H        -0.432125        -1.138748        -0.461855
 H         2.918791        -1.516034         0.235120
 H         2.385954        -1.555251        -1.558248
 H         5.381769         1.166068        -0.712699
 H         5.174077        -0.388623        -0.038530
 H         5.125843        -0.265313        -1.854125
 H         1.055131         2.192909        -1.316494
 H         3.183654         2.143453         0.630520
