19
Iteration:  3297charge 0 multiplicity 1
 C        -0.010734        -0.680605         0.202982
 C         1.269601        -0.048333        -0.089369
 C         2.512582        -0.964769        -0.546893
 C         3.327110         0.295319        -0.831140
 C         4.839492         0.139652        -0.875187
 O         2.653764         0.990184        -2.031367
 C         1.667905         1.313334        -0.965211
 C         2.680620         1.302828         0.166615
 O         1.924230         0.617942         1.148219
 H         0.146732        -1.425562         1.033374
 H        -0.855292        -0.061353         0.462020
 H        -0.391773        -1.368644        -0.631329
 H         2.726407        -1.378554         0.436913
 H         2.406726        -1.636997        -1.384689
 H         5.280802         1.083722        -1.271772
 H         5.225827        -0.089313         0.078960
 H         5.134852        -0.601601        -1.572065
 H         0.849539         2.034867        -1.245476
 H         3.134436         2.264400         0.565766
