19
Iteration:  4132
 C        -0.098883        -0.659881         0.119588
 C         1.315328        -0.136230        -0.063657
 C         2.435422        -0.966325        -0.442759
 C         3.403489         0.325224        -0.769017
 C         4.870139         0.268538        -0.981130
 O         2.702706         0.834085        -1.991420
 C         1.609171         1.196305        -1.035038
 C         2.653551         1.347239         0.128541
 O         1.929405         0.682914         1.208511
 H        -0.134584        -1.500687         0.927708
 H        -0.719417         0.054183         0.595877
 H        -0.643832        -0.792385        -0.825263
 H         2.851857        -1.336082         0.466356
 H         2.480267        -1.551517        -1.372158
 H         5.429680         1.242249        -0.826541
 H         5.538903        -0.372024        -0.299256
 H         5.112905         0.006295        -2.025530
 H         0.885527         2.063383        -1.063968
 H         3.170001         2.246180         0.557748
