19
Iteration:  1033
 C        -0.053027        -0.651708         0.004491
 C         1.350707        -0.065974        -0.079536
 C         2.508956        -0.922673        -0.390269
 C         3.422643         0.316045        -0.794696
 C         4.882163         0.115870        -1.125767
 O         2.624889         0.878481        -1.905711
 C         1.625497         1.184333        -0.890704
 C         2.664621         1.351788         0.252016
 O         1.837264         0.743735         1.153044
 H         0.132270        -1.361469         0.864814
 H        -0.845197         0.110429         0.236810
 H        -0.196568        -1.339012        -0.789173
 H         2.758473        -1.514001         0.529704
 H         2.389892        -1.644310        -1.136964
 H         5.300126         1.073419        -1.297735
 H         5.457861        -0.348596        -0.182405
 H         5.013495        -0.393200        -2.078462
 H         1.014536         2.034005        -1.191512
 H         3.102009         2.334530         0.473355
