19
Iteration:  2805charge 0 multiplicity 1
 C        -0.033016        -0.694109         0.331025
 C         1.270783        -0.019607        -0.089836
 C         2.483502        -0.886450        -0.562673
 C         3.491481         0.250062        -0.756335
 C         4.882351         0.107450        -0.986506
 O         2.736284         0.808339        -1.980181
 C         1.677400         1.274708        -1.046536
 C         2.617017         1.419693         0.166706
 O         1.805360         0.725489         1.093185
 H         0.165523        -1.569766         1.115445
 H        -0.822748        -0.106822         0.834828
 H        -0.558485        -1.257879        -0.445768
 H         2.678387        -1.717144         0.193727
 H         2.232238        -1.298824        -1.534883
 H         5.261393         1.149473        -1.031751
 H         5.054173        -0.293444         0.070149
 H         5.108978        -0.442444        -1.810403
 H         0.891248         1.923623        -1.333145
 H         2.997897         2.489621         0.545494
