19
Iteration:  2436charge 0 multiplicity 1
 C        -0.078262        -0.561357         0.041612
 C         1.321472        -0.084488         0.018544
 C         2.462584        -0.888499        -0.462090
 C         3.415413         0.330966        -0.803528
 C         4.910122         0.223226        -1.051473
 O         2.608681         0.800583        -1.987407
 C         1.672937         1.215366        -0.929246
 C         2.744749         1.321459         0.177895
 O         1.854694         0.621893         1.260409
 H        -0.324107        -1.669486         0.504284
 H        -0.777517         0.124852         0.566659
 H        -0.600183        -0.512999        -0.957037
 H         3.064264        -1.584421         0.280376
 H         2.376890        -1.396906        -1.375296
 H         5.287639         1.197613        -1.387025
 H         5.389907        -0.323586        -0.180766
 H         4.978443        -0.467402        -1.857725
 H         0.864495         1.775011        -1.276594
 H         3.282187         2.250934         0.511321
