19
Iteration:   127
 C        -0.021544        -0.689465         0.265445
 C         1.320618        -0.101216        -0.108553
 C         2.486651        -0.966535        -0.602770
 C         3.408000         0.296106        -0.770067
 C         4.853336         0.299892        -0.904119
 O         2.673049         0.924270        -1.913437
 C         1.613753         1.290343        -1.025922
 C         2.733799         1.356160         0.165180
 O         1.829599         0.584132         1.103176
 H        -0.031081        -1.592616         0.886673
 H        -0.630297         0.051802         0.691827
 H        -0.554560        -1.047575        -0.718123
 H         2.642304        -1.585322         0.232800
 H         2.426862        -1.460148        -1.664249
 H         5.130921        -0.141566        -1.920929
 H         5.419129         1.106103        -0.612903
 H         5.071693        -0.609525        -0.194133
 H         0.915134         1.974445        -1.617616
 H         3.176756         2.184763         0.739069
