19
Iteration:   431
 C        -0.030998        -0.653053         0.195247
 C         1.320765        -0.083800        -0.113121
 C         2.527577        -0.975072        -0.544009
 C         3.375390         0.294314        -0.785304
 C         4.875992         0.223517        -0.913019
 O         2.650190         0.911482        -1.948643
 C         1.613043         1.264492        -0.932698
 C         2.680351         1.313028         0.149176
 O         1.837823         0.654187         1.129380
 H         0.112207        -1.627668         0.674595
 H        -0.716453        -0.068307         0.689287
 H        -0.569884        -0.924114        -0.802824
 H         2.925031        -1.601583         0.143311
 H         2.565717        -1.440233        -1.590135
 H         5.166882         1.052310        -1.594811
 H         5.308687         0.301614         0.030674
 H         5.245226        -0.670202        -1.445402
 H         0.918661         2.057683        -1.242037
 H         3.230286         2.105605         0.660821
