19
Iteration:   562
 C        -0.047843        -0.651462         0.046777
 C         1.376906        -0.061000        -0.046228
 C         2.606366        -0.854260        -0.485169
 C         3.389868         0.322313        -0.812359
 C         4.797922         0.093333        -1.088177
 O         2.691213         0.914467        -1.919563
 C         1.632996         1.232754        -0.908322
 C         2.609271         1.354312         0.275793
 O         1.815820         0.618961         1.185674
 H         0.004644        -1.525335         0.754081
 H        -0.736957         0.127121         0.199436
 H        -0.237093        -1.180078        -0.990500
 H         3.014423        -1.225202         0.392459
 H         2.384730        -1.633140        -1.309736
 H         5.130829         1.139557        -1.306465
 H         5.364056        -0.127960        -0.199207
 H         5.037931        -0.664759        -1.879890
 H         0.848466         1.901651        -1.331804
 H         3.033297         2.258659         0.721221
