19
Iteration:    97
 C        -0.027359        -0.705339         0.146086
 C         1.306286        -0.091264        -0.112832
 C         2.474020        -0.935210        -0.515859
 C         3.445880         0.297069        -0.843629
 C         4.924258         0.201016        -0.992031
 O         2.629640         0.983936        -1.955046
 C         1.663806         1.254700        -0.918274
 C         2.647673         1.388863         0.208484
 O         1.847269         0.580691         1.157460
 H        -0.035653        -1.618220         0.811516
 H        -0.757844        -0.051649         0.578728
 H        -0.598504        -1.047233        -0.845799
 H         2.696704        -1.532051         0.395962
 H         2.383639        -1.631486        -1.443071
 H         5.288986        -0.792476        -1.447807
 H         5.463939         1.067965        -1.330555
 H         5.238230         0.095489         0.139631
 H         0.944097         2.040772        -1.245936
 H         2.875791         2.355845         0.571587
