19
Iteration:  1598
 C        -0.081426        -0.773208         0.232958
 C         1.254680        -0.063700        -0.028665
 C         2.485373        -0.914808        -0.510646
 C         3.407240         0.308056        -0.809316
 C         4.882900         0.159754        -0.978209
 O         2.673625         0.885763        -1.912893
 C         1.689674         1.246143        -0.949215
 C         2.719879         1.374038         0.158228
 O         1.826432         0.761526         1.020216
 H        -0.040062        -1.651353         0.922912
 H        -0.918947        -0.040082         0.502491
 H        -0.321745        -1.295150        -0.663494
 H         2.910077        -1.533547         0.508703
 H         2.425014        -1.648476        -1.265659
 H         5.250089         1.117840        -1.186828
 H         5.439541        -0.266535        -0.105899
 H         5.130740        -0.448128        -1.864320
 H         0.879804         1.935916        -1.349132
 H         3.285955         2.280878         0.488591
