19
Iteration:   323charge 0 multiplicity 1
 C        -0.026229        -0.647366         0.168180
 C         1.341609        -0.088173        -0.125315
 C         2.592854        -0.968188        -0.457925
 C         3.363545         0.250222        -0.791066
 C         4.835692         0.286337        -0.962093
 O         2.677765         0.850957        -1.947231
 C         1.598530         1.301462        -1.000193
 C         2.631691         1.365505         0.195838
 O         1.867483         0.652954         1.123605
 H        -0.036028        -1.334723         1.009273
 H        -0.688713         0.064025         0.446905
 H        -0.489198        -1.233614        -0.696769
 H         2.707074        -1.645477         0.286952
 H         2.408521        -1.614712        -1.428306
 H         5.340365         1.059433        -0.361434
 H         5.209739        -0.565409        -0.564709
 H         5.062433         0.138789        -2.049996
 H         0.702693         1.873805        -1.412174
 H         3.352048         2.036588         0.706728
