19
Iteration:  1296
 C        -0.029219        -0.718409         0.300928
 C         1.279277        -0.091140        -0.029031
 C         2.523611        -0.901307        -0.522272
 C         3.441867         0.284600        -0.812486
 C         4.956463         0.123086        -0.874192
 O         2.614391         0.843993        -1.993708
 C         1.669267         1.412310        -1.045044
 C         2.614399         1.404853         0.113574
 O         1.810869         0.661214         1.057333
 H         0.141148        -1.505820         1.052450
 H        -0.744611         0.021812         0.843031
 H        -0.650856        -1.227516        -0.491752
 H         2.968101        -1.678133         0.201058
 H         2.380872        -1.501014        -1.577825
 H         5.364784         1.094761        -0.909447
 H         5.220296        -0.464933         0.099112
 H         5.178704        -0.413688        -1.768351
 H         0.934317         2.042597        -1.467466
 H         3.275041         2.220928         0.505473
