19
Iteration:  3302charge 0 multiplicity 1
 C        -0.076924        -0.702597         0.218197
 C         1.304355        -0.048600        -0.074900
 C         2.464719        -0.953437        -0.562530
 C         3.353306         0.297727        -0.829161
 C         4.873025         0.150118        -0.871268
 O         2.633225         0.973819        -1.998354
 C         1.696952         1.298881        -0.971567
 C         2.681721         1.362836         0.147439
 O         1.917720         0.595290         1.094802
 H         0.282553        -1.331543         1.037070
 H        -0.807824         0.062312         0.593883
 H        -0.367323        -1.371952        -0.551277
 H         2.819387        -1.438110         0.382503
 H         2.327303        -1.623453        -1.430508
 H         5.310280         1.130610        -1.138819
 H         5.162759        -0.119216         0.200089
 H         5.243378        -0.549020        -1.682490
 H         0.857268         1.937049        -1.218913
 H         3.133790         2.177597         0.670609
