19
Iteration:  1150
 C        -0.009181        -0.683574         0.221787
 C         1.366937        -0.076091        -0.022086
 C         2.518930        -0.895652        -0.485508
 C         3.390941         0.347788        -0.811079
 C         4.903033         0.106156        -0.884101
 O         2.560852         0.900170        -1.965692
 C         1.677950         1.256913        -1.012422
 C         2.711616         1.396236         0.079559
 O         1.827370         0.622429         1.068479
 H        -0.151798        -1.715835         0.719414
 H        -0.451145         0.056777         0.851482
 H        -0.644703        -0.872257        -0.647402
 H         2.768974        -1.783489         0.285301
 H         2.257133        -1.313745        -1.444126
 H         5.340995         0.944986        -1.399032
 H         5.081998         0.256088         0.111244
 H         5.213968        -0.798468        -1.410910
 H         0.903556         2.064438        -1.333206
 H         3.090774         2.215806         0.671999
