19
Iteration:  3512
 C        -0.048121        -0.559280         0.153878
 C         1.283759        -0.078299        -0.117111
 C         2.445365        -0.914433        -0.569439
 C         3.442783         0.268846        -0.800456
 C         4.878133         0.300740        -0.843237
 O         2.531337         0.934583        -2.011076
 C         1.622886         1.232192        -0.918071
 C         2.786616         1.241757         0.190980
 O         1.918836         0.506676         1.077141
 H         0.024468        -1.290944         1.064790
 H        -0.481222         0.356442         0.605181
 H        -0.713312        -1.033675        -0.594825
 H         2.834760        -1.439454         0.339478
 H         2.287742        -1.570573        -1.451048
 H         5.378003         1.297635        -1.101592
 H         5.367083        -0.126698         0.207300
 H         5.343048        -0.484029        -1.578653
 H         0.925863         1.986871        -1.187789
 H         3.233121         2.176224         0.560970
