19
Iteration:  1035charge 0 multiplicity 1
 C        -0.055696        -0.656119         0.009614
 C         1.344275        -0.067222        -0.088763
 C         2.513838        -0.917378        -0.369306
 C         3.432117         0.301425        -0.779677
 C         4.879243         0.110370        -1.124167
 O         2.619817         0.895377        -1.909265
 C         1.632441         1.180669        -0.907742
 C         2.658490         1.356482         0.238210
 O         1.836937         0.733644         1.168240
 H         0.112091        -1.330242         0.845943
 H        -0.829496         0.155736         0.200493
 H        -0.185232        -1.343079        -0.802123
 H         2.750918        -1.493359         0.497360
 H         2.393695        -1.680855        -1.141866
 H         5.305771         1.095987        -1.297479
 H         5.428267        -0.327248        -0.285801
 H         5.043585        -0.366476        -2.085068
 H         0.987449         2.013031        -1.152367
 H         3.168032         2.352083         0.433158
