19
Iteration:   613charge 0 multiplicity 1
 C        -0.066785        -0.633255         0.193804
 C         1.306413        -0.073594        -0.118724
 C         2.448480        -0.936458        -0.492963
 C         3.366972         0.273412        -0.913199
 C         4.829633         0.321507        -0.888475
 O         2.702474         0.923586        -2.029857
 C         1.703267         1.216159        -0.897133
 C         2.684768         1.260911         0.184946
 O         1.860213         0.582709         1.167579
 H         0.187189        -1.549972         0.668539
 H        -0.533048         0.128262         0.760837
 H        -0.729133        -0.812677        -0.696371
 H         2.789580        -1.690030         0.205527
 H         2.233761        -1.375359        -1.517129
 H         5.318980         1.226595        -1.341257
 H         5.045304         0.243105         0.145990
 H         5.337169        -0.555181        -1.327048
 H         1.014540         1.912217        -1.317074
 H         3.401663         2.061337         0.481422
