19
Iteration:  3772
 C        -0.041878        -0.611497         0.051327
 C         1.341479        -0.046342        -0.065137
 C         2.548139        -0.955766        -0.459819
 C         3.481975         0.243461        -0.716687
 C         4.899649         0.139209        -1.154962
 O         2.617704         0.852562        -1.857318
 C         1.662945         1.270323        -0.944871
 C         2.616841         1.449388         0.246633
 O         1.786194         0.629209         1.166085
 H        -0.025363        -1.430794         0.845662
 H        -0.759261         0.164969         0.298132
 H        -0.171933        -1.078247        -0.947186
 H         2.932931        -1.671585         0.325363
 H         2.466101        -1.378027        -1.539225
 H         5.200640         1.238476        -1.103149
 H         5.434953        -0.714402        -0.557250
 H         4.736513        -0.103353        -2.254310
 H         0.869565         1.945150        -1.125343
 H         3.085385         2.289301         0.737590
