19
Iteration:  4794
 C        -0.051124        -0.786483         0.163166
 C         1.264504         0.001301        -0.087589
 C         2.466135        -0.885608        -0.399682
 C         3.394452         0.348719        -0.823058
 C         4.849537         0.059890        -1.001675
 O         2.727299         0.994534        -1.928636
 C         1.693013         1.292666        -0.952798
 C         2.662752         1.387799         0.126528
 O         1.864471         0.593350         1.109396
 H        -0.035824        -1.245829         1.214126
 H        -0.889986        -0.220418         0.030220
 H        -0.313476        -1.699737        -0.341173
 H         2.717552        -1.680733         0.340765
 H         2.186891        -1.311077        -1.355296
 H         5.368105         0.960820        -0.725329
 H         5.391338        -0.812777        -0.489869
 H         5.226418        -0.021377        -2.100947
 H         0.993626         2.014880        -1.186026
 H         2.882015         2.433358         0.510554
