19
Iteration:   843charge 0 multiplicity 1
 C        -0.064255        -0.665918         0.107376
 C         1.333371        -0.028889        -0.090056
 C         2.557388        -0.917358        -0.467711
 C         3.340717         0.290756        -0.762749
 C         4.881427         0.085633        -1.043123
 O         2.669522         0.948730        -1.877487
 C         1.610087         1.220346        -0.896692
 C         2.696475         1.368678         0.172395
 O         1.808778         0.667179         1.102659
 H        -0.191761        -1.406192         0.907034
 H        -0.842664         0.041818         0.293647
 H        -0.341704        -1.329701        -0.837866
 H         3.001110        -1.304342         0.398074
 H         2.698216        -1.793237        -1.229453
 H         5.465969         1.108609        -1.164760
 H         5.593983        -0.368567        -0.433357
 H         5.076209        -0.473758        -2.020299
 H         0.836764         1.952617        -1.181237
 H         3.126741         2.319974         0.525241
