19
Iteration:    56
 C        -0.100599        -0.697673        -0.090045
 C         1.291926        -0.049644        -0.080715
 C         2.522830        -0.939979        -0.439814
 C         3.421661         0.374627        -0.759195
 C         4.954100         0.198490        -1.148853
 O         2.607194         0.860476        -1.872690
 C         1.646972         1.275705        -0.866046
 C         2.687341         1.416186         0.269611
 O         1.856699         0.537649         1.233336
 H        -0.207118        -1.423507         0.719310
 H        -0.727291         0.193892         0.191630
 H        -0.276386        -1.188635        -1.026310
 H         2.724439        -1.477042         0.523441
 H         2.449342        -1.447811        -1.367251
 H         5.224759        -0.818913        -1.081937
 H         5.135833         0.657794        -2.172985
 H         5.588175         0.726029        -0.483673
 H         0.833016         1.884560        -1.201510
 H         3.084338         2.423102         0.608572
