19
Iteration:  4434charge 0 multiplicity 1
 C        -0.134595        -0.580663         0.114741
 C         1.316557        -0.128772         0.005148
 C         2.538125        -0.906586        -0.474615
 C         3.437883         0.276459        -0.796692
 C         4.981013         0.241161        -1.098893
 O         2.633542         0.852246        -1.935378
 C         1.668306         1.140417        -0.943061
 C         2.632543         1.366952         0.207802
 O         1.820535         0.650847         1.160960
 H        -0.242230        -1.283667         0.948023
 H        -0.745851         0.295825         0.306932
 H        -0.401576        -1.170730        -0.768739
 H         2.888586        -1.678854         0.237203
 H         2.287392        -1.311080        -1.499691
 H         5.195862         1.160216        -1.721038
 H         5.479502         0.340713        -0.116979
 H         5.383828        -0.640580        -1.621462
 H         0.859429         1.875962        -1.136864
 H         3.094083         2.286214         0.682831
