19
Iteration:  2707
 C        -0.039116        -0.685151         0.116794
 C         1.294874        -0.015725        -0.025426
 C         2.526282        -0.947367        -0.406404
 C         3.374788         0.225069        -0.797973
 C         4.851492         0.167188        -1.102785
 O         2.712634         0.857781        -1.922165
 C         1.674694         1.238769        -0.969662
 C         2.697089         1.337033         0.193223
 O         1.826120         0.745860         1.126110
 H        -0.334441        -1.363988         0.936636
 H        -0.703321         0.159241         0.285798
 H        -0.429230        -1.157933        -0.751219
 H         2.579734        -1.414552         0.631508
 H         2.266594        -1.636608        -1.237166
 H         5.157507         1.110628        -1.615529
 H         5.461236         0.104428        -0.133757
 H         5.006772        -0.640041        -1.741613
 H         0.929146         1.914192        -1.318344
 H         3.232665         2.264966         0.676758
