19
Iteration:  4148charge 0 multiplicity 1
 C        -0.070491        -0.660065         0.212754
 C         1.248801        -0.043624        -0.005541
 C         2.563728        -0.876253        -0.490193
 C         3.416107         0.324137        -0.791012
 C         4.886340         0.210921        -0.906345
 O         2.654740         0.835242        -1.922768
 C         1.640023         1.202419        -1.026354
 C         2.615695         1.429365         0.120411
 O         1.944905         0.591344         1.067440
 H        -0.083415        -1.560670         0.727646
 H        -0.884135         0.008479         0.683924
 H        -0.448836        -0.916452        -0.797161
 H         2.833282        -1.725439         0.225397
 H         2.311174        -1.365038        -1.447673
 H         5.375350         1.140037        -0.648444
 H         5.138413        -0.606361        -0.244501
 H         5.000171        -0.036974        -1.970977
 H         0.787052         1.682231        -1.536636
 H         3.123158         2.348388         0.419797
