19
Iteration:  4698
 C        -0.039491        -0.526742         0.049092
 C         1.337134        -0.014468        -0.038730
 C         2.495957        -0.976837        -0.508606
 C         3.406907         0.258499        -0.819092
 C         4.921441         0.288487        -0.993263
 O         2.589858         0.825357        -1.847621
 C         1.565549         1.224585        -0.940928
 C         2.739720         1.293514         0.223218
 O         1.852237         0.611823         1.123049
 H        -0.002858        -1.660593         0.247067
 H        -0.515255         0.035371         0.842361
 H        -0.640370        -0.462812        -0.849030
 H         2.896518        -1.606198         0.324124
 H         2.285521        -1.565060        -1.399552
 H         5.210107         0.886639        -1.809058
 H         5.546117         0.557611        -0.124468
 H         5.257652        -0.697906        -1.283057
 H         0.702137         1.633517        -1.485944
 H         3.399991         2.154476         0.565838
