19
Iteration:  3294charge 0 multiplicity 1
 C         0.029375        -0.677287         0.187514
 C         1.252374        -0.046982        -0.107927
 C         2.532692        -0.946644        -0.530982
 C         3.331518         0.290482        -0.837735
 C         4.805844         0.150835        -0.895152
 O         2.665640         0.996026        -2.038894
 C         1.633638         1.320568        -0.963322
 C         2.679121         1.274495         0.183363
 O         1.921935         0.629516         1.179486
 H         0.040830        -1.490032         1.082318
 H        -0.887409        -0.115513         0.373718
 H        -0.364479        -1.281772        -0.670011
 H         2.760033        -1.460661         0.538478
 H         2.450559        -1.672217        -1.374165
 H         5.248815         1.006128        -1.312649
 H         5.326867        -0.099552         0.127813
 H         5.081126        -0.752648        -1.550616
 H         0.932796         2.070137        -1.238812
 H         3.179376         2.244842         0.429057
