19
Iteration:  4362
 C         0.012100        -0.706435         0.158999
 C         1.315591        -0.050934        -0.044823
 C         2.481840        -0.891431        -0.463789
 C         3.446991         0.363845        -0.801847
 C         4.951574         0.136661        -1.026988
 O         2.662824         0.844725        -1.958720
 C         1.621854         1.201369        -0.934408
 C         2.603190         1.418024         0.188556
 O         1.790560         0.679536         1.137968
 H         0.090677        -1.459334         1.055965
 H        -0.679478         0.091669         0.436953
 H        -0.216663        -1.323924        -0.706765
 H         2.817584        -1.656924         0.216647
 H         2.223687        -1.286129        -1.415855
 H         5.447813         0.976380        -0.671427
 H         5.194519        -0.828697        -0.451721
 H         5.097759        -0.009240        -2.110233
 H         0.923366         1.872585        -1.331642
 H         2.990494         2.421289         0.293689
