19
Iteration:  4665charge 0 multiplicity 1
 C        -0.140066        -0.737062         0.183442
 C         1.265022        -0.121382        -0.023000
 C         2.532809        -0.850660        -0.522905
 C         3.376276         0.299909        -0.808897
 C         4.892040         0.130550        -0.945178
 O         2.697146         0.979986        -1.929835
 C         1.664164         1.282682        -0.968008
 C         2.746687         1.370874         0.165383
 O         1.849806         0.624618         1.070357
 H        -0.098065        -1.754338         0.763415
 H        -0.683206        -0.184431         0.903273
 H        -0.742701        -0.852330        -0.703252
 H         3.064814        -1.372538         0.312561
 H         2.336287        -1.551628        -1.329901
 H         5.136544         0.782950        -1.715293
 H         5.553174         0.278178        -0.080492
 H         4.942261        -0.853563        -1.387045
 H         0.864036         1.850467        -1.451910
 H         3.177791         2.325778         0.557721
