19
Iteration:  4511
 C        -0.071983        -0.774748         0.173222
 C         1.293660        -0.069982        -0.027779
 C         2.561575        -0.905736        -0.482886
 C         3.378054         0.242860        -0.817787
 C         4.877209         0.110770        -0.955247
 O         2.657243         0.986876        -1.971764
 C         1.630488         1.227337        -0.952539
 C         2.720160         1.357699         0.119849
 O         1.866401         0.746498         1.140471
 H        -0.018949        -1.805661         0.680387
 H        -0.612039        -0.064845         0.727252
 H        -0.518081        -0.855200        -0.808054
 H         2.993590        -1.691366         0.156763
 H         2.105009        -1.314424        -1.424149
 H         5.112795         1.066151        -1.368772
 H         5.161153         0.036382         0.064823
 H         5.177847        -0.648274        -1.677368
 H         0.792440         1.829227        -1.165171
 H         3.104784         2.297408         0.522017
