19
Iteration:   868
 C        -0.055611        -0.686779         0.019003
 C         1.357287        -0.050665        -0.043804
 C         2.537765        -0.898228        -0.363163
 C         3.386274         0.345365        -0.742853
 C         4.845392         0.131091        -1.185819
 O         2.682179         0.884536        -1.923994
 C         1.718592         1.231295        -0.989559
 C         2.611454         1.427764         0.285352
 O         1.803916         0.655736         1.231909
 H        -0.361938        -1.322985         0.949864
 H        -0.804512         0.111479        -0.064340
 H        -0.280120        -1.448053        -0.808264
 H         3.014463        -1.672283         0.353323
 H         2.339523        -1.446470        -1.296016
 H         5.610464         0.831895        -1.235820
 H         5.412640        -0.653847        -0.517719
 H         4.860749        -0.395040        -2.140964
 H         0.927785         1.855852        -1.422132
 H         3.032635         2.340459         0.605708
