19
Iteration:   407
 C        -0.075335        -0.734746         0.055270
 C         1.335824        -0.040058        -0.013521
 C         2.463134        -0.892469        -0.430666
 C         3.446497         0.272702        -0.836085
 C         4.974396         0.181877        -1.067021
 O         2.614075         0.921992        -1.920939
 C         1.653947         1.254105        -0.955437
 C         2.662447         1.412819         0.210977
 O         1.810559         0.606239         1.208665
 H         0.039354        -1.652948         0.664488
 H        -0.943456        -0.141615         0.347641
 H        -0.392230        -1.131760        -0.970060
 H         2.888641        -1.351015         0.441635
 H         2.224915        -1.603029        -1.296449
 H         5.236338         0.982091        -1.790094
 H         5.457948         0.248561        -0.067240
 H         5.311386        -0.703836        -1.616917
 H         1.070619         1.987073        -1.529697
 H         3.121701         2.302137         0.747171
