19
Iteration:  1738
 C        -0.029611        -0.646603         0.004431
 C         1.353530        -0.044827        -0.048228
 C         2.564376        -1.009628        -0.402485
 C         3.400069         0.312564        -0.838138
 C         4.894057         0.190362        -1.142378
 O         2.628018         0.851820        -1.857324
 C         1.680582         1.229776        -0.831557
 C         2.646453         1.372206         0.163091
 O         1.778174         0.707243         1.164651
 H        -0.110527        -1.558558         0.673964
 H        -0.760151         0.177079         0.311648
 H        -0.337578        -1.056777        -0.899606
 H         2.868613        -1.229603         0.638795
 H         2.422737        -1.888603        -1.013168
 H         5.224638         0.891123        -1.878233
 H         5.457067         0.251164        -0.154771
 H         5.018400        -0.902769        -1.551732
 H         0.833747         1.990521        -1.141125
 H         3.112545         2.373013         0.334009
