19
Iteration:  1141charge 0 multiplicity 1
 C         0.007810        -0.674480         0.252495
 C         1.270417        -0.078939        -0.056599
 C         2.480790        -0.900473        -0.472713
 C         3.413339         0.247951        -0.796680
 C         4.896908         0.173814        -0.888382
 O         2.597292         0.961120        -2.012719
 C         1.642870         1.295305        -1.016018
 C         2.660498         1.305740         0.120117
 O         1.897778         0.628926         1.041535
 H         0.154356        -1.656150         0.833364
 H        -0.615197        -0.021728         0.920557
 H        -0.481965        -0.760586        -0.701431
 H         2.729170        -1.564438         0.478330
 H         2.344542        -1.468189        -1.390069
 H         5.435219         0.974787        -1.246338
 H         5.242261         0.013610         0.210398
 H         5.246201        -0.775857        -1.240195
 H         0.763089         1.956016        -1.213843
 H         3.131432         2.273562         0.260035
