19
Iteration:  2285charge 0 multiplicity 1
 C        -0.018637        -0.538718         0.154037
 C         1.299802        -0.061402        -0.026499
 C         2.462863        -0.907992        -0.566409
 C         3.375263         0.321730        -0.797286
 C         4.877784         0.202999        -1.008850
 O         2.661557         0.849240        -1.959631
 C         1.604026         1.237503        -0.931004
 C         2.711065         1.276188         0.243993
 O         1.890794         0.581761         1.110600
 H        -0.039966        -1.546693         0.590892
 H        -0.579085         0.047846         0.821229
 H        -0.617262        -0.713441        -0.758469
 H         2.960693        -1.758477         0.129162
 H         2.311029        -1.297922        -1.522267
 H         5.233414         1.291340        -1.151473
 H         5.274900         0.017315         0.057608
 H         5.073367        -0.494918        -1.796202
 H         0.841794         1.892149        -1.194854
 H         3.301483         2.135262         0.680830
