19
Iteration:  1063charge 0 multiplicity 1
 C        -0.162299        -0.619885         0.075166
 C         1.299611        -0.149852         0.035057
 C         2.585505        -0.936886        -0.343801
 C         3.409333         0.368911        -0.804509
 C         4.819958         0.189498        -1.108873
 O         2.686042         0.872813        -1.941754
 C         1.667865         1.244076        -0.995373
 C         2.667927         1.351185         0.222549
 O         1.863669         0.648085         1.116025
 H        -0.287227        -1.199322         1.053610
 H        -0.836681         0.183847        -0.095427
 H        -0.194867        -1.359551        -0.765655
 H         2.999373        -1.404596         0.653976
 H         2.494085        -1.747782        -1.084306
 H         5.373389         1.127802        -1.134425
 H         5.456433        -0.611133        -0.477249
 H         4.938103        -0.186076        -2.159561
 H         0.981141         2.130716        -1.266906
 H         3.167689         2.203764         0.616745
