19
Iteration:  2443charge 0 multiplicity 1
 C        -0.176080        -0.561533         0.084891
 C         1.264826        -0.112624         0.040749
 C         2.485036        -0.931990        -0.501536
 C         3.445517         0.372492        -0.820785
 C         4.915247         0.235054        -1.014997
 O         2.591453         0.833825        -1.956942
 C         1.700086         1.178745        -0.983768
 C         2.740454         1.316933         0.177615
 O         1.907204         0.621665         1.207389
 H        -0.058808        -1.529727         0.445070
 H        -0.719169         0.144744         0.773753
 H        -0.663776        -0.579746        -0.859718
 H         2.825935        -1.432541         0.321377
 H         2.358860        -1.630333        -1.398977
 H         5.371619         1.197852        -1.156114
 H         5.422188        -0.203206        -0.125742
 H         5.127729        -0.526425        -1.860248
 H         0.923401         1.948527        -1.325036
 H         3.274922         2.190599         0.485581
