19
Iteration:  4624
 C        -0.001882        -0.700225         0.154348
 C         1.312470        -0.006273        -0.078335
 C         2.537715        -0.836072        -0.551444
 C         3.430174         0.328384        -0.790464
 C         4.878289         0.060856        -1.001342
 O         2.602543         0.842310        -1.900765
 C         1.630618         1.291967        -0.964627
 C         2.668080         1.422990         0.240256
 O         1.791210         0.632587         1.091114
 H         0.150863        -1.338713         1.059753
 H        -0.908915        -0.032515         0.282923
 H        -0.203030        -1.500958        -0.579868
 H         3.013791        -1.459354         0.246363
 H         2.441648        -1.354995        -1.505273
 H         5.486379         1.023773        -1.020947
 H         5.332254        -0.469082        -0.120848
 H         5.227320        -0.450864        -1.901287
 H         0.694877         1.918661        -1.275227
 H         3.335122         2.166552         0.755858
