19
Iteration:  2365charge 0 multiplicity 1
 C        -0.007360        -0.707488         0.117273
 C         1.324329        -0.056925        -0.115335
 C         2.529983        -0.945704        -0.512940
 C         3.409582         0.293304        -0.796315
 C         4.872164         0.076760        -1.083349
 O         2.665449         0.954164        -1.876937
 C         1.650107         1.331960        -0.893767
 C         2.670541         1.405806         0.263341
 O         1.815187         0.647572         1.160721
 H        -0.127618        -1.030205         1.136828
 H        -0.832501         0.088465        -0.051237
 H        -0.285551        -1.446312        -0.676542
 H         2.654280        -1.647908         0.257369
 H         2.218588        -1.546339        -1.419913
 H         5.321628         1.017194        -1.521240
 H         5.282352        -0.438793        -0.235820
 H         4.928892        -0.654609        -1.998646
 H         0.713488         1.919802        -1.271812
 H         3.390537         2.181065         0.590650
