19
Iteration:   944charge 0 multiplicity 1
 C        -0.048724        -0.556885         0.209026
 C         1.295364        -0.097894        -0.126022
 C         2.467451        -0.972461        -0.582992
 C         3.432504         0.329292        -0.742437
 C         4.937561         0.251212        -0.914341
 O         2.614740         0.848752        -1.966804
 C         1.606975         1.182288        -0.907387
 C         2.687233         1.389167         0.125948
 O         1.881071         0.600166         1.113232
 H         0.007259        -1.547473         0.762586
 H        -0.579982         0.232012         0.709664
 H        -0.681032        -0.893790        -0.623169
 H         2.575287        -1.704709         0.251614
 H         2.271996        -1.450867        -1.490192
 H         5.380590         1.136078        -1.267307
 H         5.455756         0.004657         0.112447
 H         5.340564        -0.494345        -1.584369
 H         0.880304         1.839495        -1.382808
 H         3.218265         2.233601         0.513809
