19
Iteration:  1097charge 0 multiplicity 1
 C        -0.000275        -0.594963         0.213608
 C         1.298123        -0.042721         0.006235
 C         2.505046        -0.981081        -0.535094
 C         3.406901         0.305215        -0.736334
 C         4.949471         0.203726        -0.949958
 O         2.588586         0.847655        -1.982236
 C         1.652364         1.220643        -1.012233
 C         2.651091         1.369017         0.137830
 O         1.829444         0.646848         1.084448
 H        -0.109556        -1.312727         1.132168
 H        -0.857496         0.080142         0.365316
 H        -0.176107        -1.176183        -0.691134
 H         2.884529        -1.742461         0.316747
 H         2.221077        -1.419925        -1.472992
 H         5.314318         1.195811        -1.027691
 H         5.702237        -0.423626        -0.181175
 H         4.986640        -0.225921        -1.965119
 H         0.890487         2.064255        -1.163425
 H         3.242328         2.126536         0.649551
