19
Iteration:  1558
 C        -0.047172        -0.557704         0.018308
 C         1.390494        -0.099749         0.016435
 C         2.623170        -0.929401        -0.389617
 C         3.432429         0.321606        -0.729195
 C         4.832140         0.200038        -1.098406
 O         2.569286         0.752557        -1.932878
 C         1.592329         1.204666        -0.915561
 C         2.670996         1.398149         0.228788
 O         1.835561         0.661806         1.100060
 H        -0.325736        -1.245739         0.812710
 H        -0.647541         0.355742        -0.104129
 H        -0.121804        -0.945916        -1.040556
 H         2.976055        -1.434226         0.463972
 H         2.542866        -1.597954        -1.270308
 H         5.157596         1.017178        -1.789863
 H         5.599660         0.265941        -0.217033
 H         4.885227        -0.745937        -1.594688
 H         0.729476         1.772735        -1.131555
 H         3.134610         2.307796         0.722562
