19
Iteration:  3966
 C        -0.060808        -0.552608         0.166313
 C         1.328566        -0.086622        -0.094066
 C         2.525801        -0.924026        -0.439405
 C         3.415729         0.295240        -0.772854
 C         4.983773         0.228560        -0.959227
 O         2.527605         0.853911        -1.963874
 C         1.630170         1.227081        -0.957668
 C         2.704709         1.346198         0.128666
 O         1.836442         0.560415         1.089688
 H         0.038023        -1.452357         0.907144
 H        -0.722241         0.296222         0.494486
 H        -0.309340        -0.853391        -0.843501
 H         2.694145        -1.485381         0.459342
 H         2.438537        -1.510193        -1.343493
 H         5.498216         1.229343        -0.597250
 H         5.413325        -0.567995        -0.350234
 H         5.217569        -0.019043        -2.068547
 H         0.854364         1.909420        -1.040540
 H         3.055602         2.248642         0.593335
