19
Iteration:   189
 C        -0.026084        -0.651805        -0.015480
 C         1.328700        -0.061928        -0.081438
 C         2.608419        -0.919284        -0.408706
 C         3.387065         0.235054        -0.783295
 C         4.863263         0.178482        -1.102377
 O         2.633336         0.854971        -1.898130
 C         1.603524         1.265261        -0.933249
 C         2.642604         1.454139         0.258424
 O         1.846176         0.581080         1.181600
 H        -0.031375        -1.218734         0.933729
 H        -0.697696         0.263814         0.127603
 H        -0.265051        -1.164561        -0.886299
 H         2.816432        -1.578769         0.454891
 H         2.412693        -1.598966        -1.210770
 H         4.937109         0.753581        -1.998245
 H         5.432799         0.813212        -0.309202
 H         5.318278        -0.748910        -1.244127
 H         0.733374         1.910372        -1.207394
 H         3.124101         2.423375         0.691008
