19
Iteration:   680charge 0 multiplicity 1
 C        -0.034732        -0.642718         0.051258
 C         1.368422        -0.076208        -0.067786
 C         2.607589        -0.952478        -0.378559
 C         3.381761         0.255906        -0.792573
 C         4.860153         0.101315        -1.086998
 O         2.636866         0.977279        -1.855171
 C         1.639161         1.286930        -0.936973
 C         2.625762         1.383835         0.178944
 O         1.821065         0.633688         1.138237
 H        -0.068677        -1.385776         0.855114
 H        -0.754292         0.105415         0.047927
 H        -0.281142        -1.387421        -0.837689
 H         2.913555        -1.577412         0.397831
 H         2.272017        -1.457511        -1.377752
 H         5.228922         1.156308        -0.952796
 H         5.361791        -0.516095        -0.408950
 H         5.056246        -0.302016        -2.109150
 H         0.741383         1.865124        -1.189964
 H         3.169333         2.285320         0.534640
