19
Iteration:  3215charge 0 multiplicity 1
 C        -0.116044        -0.565992         0.040078
 C         1.305448        -0.116027        -0.006834
 C         2.574625        -0.996910        -0.331467
 C         3.402508         0.232288        -0.698056
 C         4.868315         0.233753        -1.124794
 O         2.609839         0.925256        -1.959871
 C         1.714555         1.280345        -0.957936
 C         2.654755         1.325785         0.163777
 O         1.868814         0.626947         1.107124
 H        -0.327839        -1.555462         0.646155
 H        -0.928761         0.112850         0.524718
 H        -0.476558        -0.815890        -0.973123
 H         2.885082        -1.512392         0.648737
 H         2.553911        -1.877955        -1.070740
 H         5.169139         1.193396        -1.668695
 H         5.496133         0.275720        -0.194855
 H         5.224581        -0.668985        -1.710720
 H         0.932405         2.062359        -1.052834
 H         3.305860         2.068231         0.566773
