19
Iteration:  4441
 C        -0.152219        -0.646529         0.126791
 C         1.337830        -0.157852         0.006533
 C         2.535432        -0.990392        -0.459129
 C         3.459236         0.310774        -0.820299
 C         4.988042         0.231412        -1.073019
 O         2.679747         0.867666        -1.972715
 C         1.636691         1.248508        -0.869687
 C         2.620235         1.356441         0.201154
 O         1.817072         0.675177         1.138486
 H        -0.284349        -1.290909         0.978912
 H        -0.757550         0.347288         0.419841
 H        -0.638496        -1.044859        -0.829496
 H         3.016203        -1.770396         0.151053
 H         2.312154        -1.448987        -1.426601
 H         5.213816         1.078546        -1.802313
 H         5.311268         0.402160        -0.066346
 H         5.211069        -0.718632        -1.566205
 H         0.830370         2.031823        -1.053192
 H         3.079870         2.331570         0.287245
