19
Iteration:  2921
 C        -0.111490        -0.563686         0.078040
 C         1.306520        -0.032080        -0.091437
 C         2.559251        -0.929604        -0.293710
 C         3.417303         0.247803        -0.780907
 C         4.881253         0.217378        -1.141775
 O         2.647936         0.772120        -1.849930
 C         1.659375         1.209153        -0.941101
 C         2.774358         1.387632         0.184090
 O         1.789148         0.645497         1.065113
 H        -0.223320        -1.017414         1.026282
 H        -0.913900         0.206187        -0.018342
 H        -0.313052        -1.318685        -0.662265
 H         2.749706        -1.394946         0.669652
 H         2.439430        -1.820805        -0.997386
 H         5.190637         1.242142        -1.209764
 H         5.569969        -0.161053        -0.373713
 H         4.856938        -0.160022        -2.259837
 H         0.942100         1.926287        -1.366848
 H         3.213325         2.208299         0.682175
