19
Iteration:  2293
 C        -0.013564        -0.544410         0.184209
 C         1.333284        -0.036432        -0.049162
 C         2.466647        -0.971157        -0.609707
 C         3.359860         0.238617        -0.791804
 C         4.862140         0.265823        -0.910532
 O         2.652584         0.918466        -1.951915
 C         1.565475         1.214937        -0.932055
 C         2.742937         1.309820         0.147829
 O         1.887628         0.557626         1.098199
 H         0.127709        -1.412959         0.854780
 H        -0.466993         0.145722         0.917165
 H        -0.555805        -0.589946        -0.703215
 H         2.628804        -1.695007         0.228857
 H         2.328654        -1.528547        -1.604418
 H         5.237003         1.186693        -1.215105
 H         5.275500        -0.207000         0.003310
 H         5.199476        -0.400903        -1.695794
 H         0.793675         1.949625        -1.180158
 H         3.330041         2.041926         0.673406
