19
Iteration:   567charge 0 multiplicity 1
 C        -0.041232        -0.678169         0.031815
 C         1.363024        -0.054387        -0.089131
 C         2.571902        -0.862027        -0.467707
 C         3.412617         0.336796        -0.778695
 C         4.806659         0.105859        -1.075274
 O         2.693231         0.915273        -1.929269
 C         1.582501         1.217940        -0.914736
 C         2.630671         1.346344         0.261385
 O         1.852386         0.626336         1.169009
 H         0.151833        -1.469761         0.747723
 H        -0.699376         0.280948         0.217100
 H        -0.408178        -1.061733        -0.862216
 H         2.918177        -1.557510         0.471608
 H         2.389767        -1.490934        -1.278777
 H         5.172298         1.063569        -1.442510
 H         5.335718        -0.094764        -0.081346
 H         5.119342        -0.606756        -1.820312
 H         0.723823         1.902897        -1.060557
 H         2.997308         2.256331         0.752134
