19
Iteration:  1836
 C        -0.152822        -0.637879         0.176483
 C         1.281557        -0.079150        -0.145599
 C         2.496335        -0.928590        -0.502168
 C         3.414918         0.258225        -0.820992
 C         4.932295         0.223692        -0.980272
 O         2.698632         0.853619        -1.915079
 C         1.572102         1.258760        -0.941196
 C         2.637683         1.402471         0.183587
 O         1.970341         0.634369         1.139369
 H         0.077619        -1.323779         1.022905
 H        -0.803899         0.246153         0.409844
 H        -0.606370        -1.278485        -0.481235
 H         2.833326        -1.649447         0.341745
 H         2.314014        -1.498866        -1.454880
 H         5.336579         1.154533        -0.813842
 H         5.406663        -0.500610        -0.307275
 H         5.032319        -0.075975        -2.069441
 H         0.617984         1.758483        -1.408320
 H         3.251213         2.226484         0.622538
