19
Iteration:  3187
 C        -0.087193        -0.573218         0.176418
 C         1.331149        -0.025856        -0.039924
 C         2.446928        -0.907618        -0.567333
 C         3.416660         0.322806        -0.831041
 C         4.875878         0.236525        -0.930880
 O         2.624578         0.777060        -1.979996
 C         1.652231         1.175575        -0.918955
 C         2.666905         1.352887         0.182776
 O         1.911404         0.637094         1.106334
 H         0.109201        -1.502922         0.761433
 H        -0.781703         0.073401         0.615283
 H        -0.401348        -0.965763        -0.807380
 H         2.747238        -1.617565         0.241755
 H         2.363137        -1.493349        -1.439640
 H         5.463509         1.171628        -0.925190
 H         5.034436        -0.197488         0.101370
 H         5.349826        -0.330351        -1.712659
 H         0.873306         1.902220        -1.106750
 H         3.377090         2.194833         0.482543
