19
Iteration:   953charge 0 multiplicity 1
 C        -0.068788        -0.604885         0.261207
 C         1.364190        -0.091916        -0.137569
 C         2.493318        -0.962967        -0.576773
 C         3.406831         0.309691        -0.741299
 C         4.953826         0.259477        -0.848023
 O         2.604626         0.856483        -2.077666
 C         1.646097         1.228733        -0.980542
 C         2.640057         1.364003         0.214560
 O         1.877811         0.600263         1.108065
 H        -0.227675        -1.458371         0.898776
 H        -0.563495         0.121646         0.807175
 H        -0.692729        -0.645964        -0.696778
 H         2.709353        -1.664539         0.223111
 H         2.272141        -1.394571        -1.581838
 H         5.386179         1.161468        -1.410198
 H         5.483453         0.056511         0.106612
 H         4.950130        -0.672255        -1.450685
 H         0.750024         1.882862        -1.014176
 H         3.332736         2.112745         0.415736
