19
Iteration:  3256
 C        -0.099241        -0.695643         0.035263
 C         1.317528        -0.006335        -0.062840
 C         2.561914        -0.943013        -0.421031
 C         3.498181         0.295824        -0.730209
 C         4.986655         0.087343        -1.176553
 O         2.557364         0.846828        -1.921764
 C         1.643394         1.260334        -0.882478
 C         2.602532         1.462470         0.300283
 O         1.825900         0.666588         1.192519
 H        -0.155454        -1.527554         0.593350
 H        -0.835405         0.115326         0.139391
 H        -0.020432        -0.974204        -0.992779
 H         2.828657        -1.606402         0.308434
 H         2.453529        -1.426200        -1.403193
 H         5.183642         0.754771        -2.123642
 H         5.712135         0.236144        -0.419603
 H         5.005566        -0.913396        -1.606945
 H         0.870797         2.054868        -1.188597
 H         3.032429         2.377045         0.714741
