19
Iteration:  2671charge 0 multiplicity 1
 C        -0.018863        -0.711269         0.302827
 C         1.266593         0.006023        -0.095217
 C         2.502766        -0.919818        -0.572283
 C         3.414037         0.303863        -0.838506
 C         4.886708         0.086037        -0.865516
 O         2.710029         0.876640        -1.985496
 C         1.557372         1.246844        -1.008339
 C         2.646867         1.423282         0.160748
 O         1.865742         0.688921         1.095928
 H         0.212953        -1.657894         0.778662
 H        -0.414979         0.043665         1.091543
 H        -0.752726        -0.712429        -0.552212
 H         2.717407        -1.624875         0.179946
 H         2.500708        -1.540408        -1.526477
 H         5.517375         0.780275        -1.300424
 H         5.132590        -0.225479         0.117209
 H         5.070940        -0.872833        -1.446827
 H         0.918391         2.071540        -1.388776
 H         3.161423         2.311156         0.359797
