19
Iteration:  2635charge 0 multiplicity 1
 C        -0.055305        -0.624117         0.273451
 C         1.291958        -0.086823        -0.062233
 C         2.466800        -0.992642        -0.526647
 C         3.338291         0.290368        -0.842312
 C         4.892419         0.162889        -0.846856
 O         2.655272         0.881042        -2.049022
 C         1.586050         1.232021        -0.975444
 C         2.678960         1.369966         0.055489
 O         1.965395         0.699211         1.153161
 H        -0.174955        -1.710533         0.518303
 H        -0.665173        -0.028466         0.967989
 H        -0.524593        -0.597008        -0.773797
 H         2.939988        -1.537487         0.276969
 H         2.276405        -1.399669        -1.495993
 H         5.470652         1.128374        -0.736588
 H         5.074242        -0.214023         0.133720
 H         5.343361        -0.573950        -1.570663
 H         1.025611         2.129653        -1.329075
 H         3.256840         2.135233         0.519969
