19
Iteration:  1124charge 0 multiplicity 1
 C        -0.088579        -0.704901         0.243130
 C         1.260303        -0.045333        -0.113061
 C         2.483727        -0.964715        -0.541161
 C         3.341021         0.310723        -0.894154
 C         4.870015         0.160699        -0.845379
 O         2.696363         0.918810        -1.993666
 C         1.627909         1.224430        -0.994452
 C         2.712153         1.379725         0.094482
 O         1.940537         0.671107         1.168232
 H         0.127163        -1.491997         0.899687
 H        -0.715911        -0.059182         0.904042
 H        -0.718275        -1.198542        -0.537253
 H         2.795473        -1.336123         0.338208
 H         2.276986        -1.776963        -1.301982
 H         5.142054         1.272385        -1.176783
 H         5.290014        -0.022306         0.180599
 H         5.231516        -0.492291        -1.675854
 H         0.949148         1.957755        -1.300277
 H         3.298661         2.219120         0.564471
