19
Iteration:  3288charge 0 multiplicity 1
 C         0.029734        -0.722842         0.170768
 C         1.276707        -0.033989        -0.140248
 C         2.537532        -0.908479        -0.468000
 C         3.359217         0.287611        -0.841587
 C         4.774539         0.127228        -0.938452
 O         2.674837         0.993063        -2.008712
 C         1.597237         1.298891        -0.951481
 C         2.670802         1.264001         0.186200
 O         1.905881         0.644138         1.216348
 H        -0.044599        -1.372725         0.937071
 H        -0.829595        -0.029690         0.282148
 H        -0.191891        -1.171956        -0.827713
 H         2.874711        -1.459506         0.310099
 H         2.481329        -1.636059        -1.263058
 H         5.300062         1.006083        -1.470818
 H         5.259822         0.016549        -0.040535
 H         4.942131        -0.804428        -1.413465
 H         0.965651         2.215479        -1.225146
 H         3.343661         2.132012         0.273502
