19
Iteration:  4901charge 0 multiplicity 1
 C        -0.122179        -0.577833         0.010523
 C         1.302439        -0.022785        -0.054289
 C         2.506402        -0.933415        -0.449255
 C         3.463786         0.233365        -0.781231
 C         5.021685         0.235792        -1.052886
 O         2.534966         0.899649        -1.936487
 C         1.622436         1.200488        -0.921799
 C         2.691864         1.303485         0.249378
 O         1.841480         0.608043         1.158199
 H        -0.024419        -1.587934         0.531825
 H        -0.666782         0.000053         0.755486
 H        -0.552319        -0.622957        -1.023972
 H         2.933887        -1.535234         0.348675
 H         2.340661        -1.430264        -1.406113
 H         5.353107         1.020656        -1.670882
 H         5.476164         0.462608        -0.072156
 H         5.554310        -0.684980        -1.412308
 H         0.737743         1.793584        -1.155071
 H         3.323646         2.026492         0.642860
