19
Iteration:  1306
 C        -0.072226        -0.797416         0.315641
 C         1.278956        -0.080700        -0.049878
 C         2.506080        -0.864996        -0.575778
 C         3.370758         0.295268        -0.794882
 C         4.843792         0.160240        -0.875345
 O         2.724392         0.848588        -2.064586
 C         1.683733         1.288170        -1.013133
 C         2.639582         1.400102         0.160985
 O         1.874015         0.735125         1.093434
 H         0.070256        -1.643878         1.009823
 H        -0.714230         0.019095         0.844866
 H        -0.591108        -1.051726        -0.631946
 H         2.749161        -1.574183         0.314890
 H         2.268364        -1.491468        -1.550814
 H         5.343571         1.071347        -1.064165
 H         5.330709        -0.344985         0.088746
 H         5.048403        -0.541006        -1.676109
 H         0.988819         2.048969        -1.324725
 H         3.268106         2.201060         0.597176
