19
Iteration:  4654
 C        -0.111595        -0.742836         0.236571
 C         1.312322        -0.103981        -0.042928
 C         2.495291        -0.956489        -0.488397
 C         3.377928         0.364241        -0.789291
 C         4.861131         0.093230        -1.028581
 O         2.762961         1.045785        -1.902532
 C         1.614831         1.253976        -1.030293
 C         2.635459         1.325955         0.134815
 O         1.857890         0.694833         1.115557
 H         0.122022        -1.789295         0.691710
 H        -0.818089        -0.122306         0.696688
 H        -0.411983        -0.969738        -0.774941
 H         2.917362        -1.644709         0.282770
 H         2.421950        -1.408273        -1.478805
 H         5.386447         0.818761        -1.547727
 H         5.229109         0.105914         0.015012
 H         5.176895        -0.892943        -1.353622
 H         0.833179         1.972513        -1.275145
 H         3.327100         2.117571         0.522105
