19
Iteration:  2246charge 0 multiplicity 1
 C        -0.046787        -0.652823        -0.019540
 C         1.320848        -0.059910        -0.092277
 C         2.547618        -0.896023        -0.290783
 C         3.388082         0.320832        -0.797535
 C         4.851195         0.073727        -1.226697
 O         2.634751         0.992457        -1.841247
 C         1.657325         1.244814        -0.839229
 C         2.687111         1.277027         0.236899
 O         1.834567         0.654799         1.143141
 H         0.041891        -1.596178         0.542007
 H        -0.913174        -0.075856         0.438514
 H        -0.155932        -0.704649        -1.134249
 H         2.954236        -1.342743         0.554139
 H         2.308285        -1.656547        -1.124014
 H         5.205742         0.988771        -1.704851
 H         5.502888        -0.234355        -0.472368
 H         5.036088        -0.643717        -2.067036
 H         0.750273         1.931526        -1.061678
 H         3.237203         2.126819         0.647886
