19
Iteration:   790
 C        -0.124907        -0.576349         0.197258
 C         1.340195        -0.095379        -0.117154
 C         2.507304        -0.984822        -0.637559
 C         3.345414         0.197211        -0.837264
 C         4.891162         0.231921        -0.881182
 O         2.649880         0.910314        -1.897288
 C         1.645314         1.241386        -0.993051
 C         2.605945         1.326804         0.143037
 O         1.977431         0.663015         1.161378
 H         0.036431        -1.503311         0.862459
 H        -0.608019        -0.011676         0.941093
 H        -0.915236        -0.790981        -0.687894
 H         2.703205        -1.682339         0.153958
 H         2.501154        -1.573625        -1.647125
 H         5.197586         1.252434        -1.254941
 H         5.280648         0.300686         0.166828
 H         5.569410        -0.527898        -1.328330
 H         0.864443         1.938103        -1.366983
 H         3.153204         2.170391         0.532273
