19
Iteration:   686charge 0 multiplicity 1
 C        -0.058267        -0.732249        -0.001289
 C         1.396230        -0.031509        -0.089390
 C         2.549389        -0.970571        -0.360013
 C         3.377929         0.269257        -0.761860
 C         4.848627         0.106959        -1.147134
 O         2.601723         0.958432        -1.837630
 C         1.690849         1.301556        -0.928099
 C         2.656884         1.403220         0.181907
 O         1.820034         0.637976         1.160316
 H         0.029421        -1.327731         0.933476
 H        -0.897886         0.145468        -0.032139
 H        -0.397631        -1.321106        -0.771459
 H         3.050306        -1.523537         0.556425
 H         2.321940        -1.415892        -1.256156
 H         5.333120         1.078424        -1.027866
 H         5.385145        -0.546211        -0.334827
 H         5.193259        -0.205691        -2.130293
 H         0.915710         1.951833        -1.340282
 H         3.118795         2.299674         0.605590
