19
Iteration:  2712charge 0 multiplicity 1
 C        -0.071607        -0.652144         0.077879
 C         1.322735        -0.014534        -0.017156
 C         2.510456        -0.991360        -0.402655
 C         3.395174         0.254245        -0.786684
 C         4.833630         0.193086        -1.097859
 O         2.705006         0.832164        -1.904496
 C         1.694920         1.238197        -0.946724
 C         2.698858         1.360622         0.153716
 O         1.821615         0.740238         1.169829
 H        -0.190799        -1.288073         0.972939
 H        -0.829351         0.156331         0.215594
 H        -0.281758        -1.256844        -0.867706
 H         2.720934        -1.444976         0.555699
 H         2.194024        -1.631965        -1.220426
 H         5.152835         1.074261        -1.683025
 H         5.452609         0.045241        -0.244848
 H         5.071473        -0.655332        -1.863963
 H         0.825530         1.847232        -1.337518
 H         3.195355         2.176503         0.556614
