19
Iteration:  2894charge 0 multiplicity 1
 C        -0.153366        -0.541143         0.052833
 C         1.331127        -0.091642        -0.031617
 C         2.566936        -0.980094        -0.363046
 C         3.414967         0.218841        -0.794154
 C         4.883773         0.254592        -1.103151
 O         2.662505         0.773568        -1.965197
 C         1.716187         1.194730        -0.964956
 C         2.700506         1.331359         0.208023
 O         1.815547         0.723522         1.200436
 H        -0.306532        -1.317162         0.916135
 H        -0.806739         0.304607         0.235394
 H        -0.453968        -0.993527        -0.955223
 H         2.852771        -1.552684         0.584096
 H         2.229135        -1.774719        -1.028362
 H         5.043711         1.303030        -1.531201
 H         5.709342         0.300831        -0.366741
 H         4.986572        -0.424209        -1.860206
 H         1.003711         1.971873        -1.320184
 H         2.918589         2.417306         0.608341
