19
Iteration:  3072
 C        -0.077635        -0.534919        -0.064230
 C         1.318442        -0.054617        -0.086826
 C         2.669257        -0.944522        -0.310928
 C         3.369125         0.289903        -0.800771
 C         4.892329         0.175758        -1.116445
 O         2.496594         0.788569        -1.938885
 C         1.669320         1.182048        -0.908474
 C         2.713055         1.361275         0.289326
 O         1.878686         0.694230         1.186804
 H        -0.310318        -1.366616         0.574594
 H        -0.874041         0.290938         0.143013
 H        -0.385518        -0.941933        -1.054781
 H         2.920954        -1.340227         0.671059
 H         2.471927        -1.831400        -1.002578
 H         5.131899         1.056641        -1.701916
 H         5.371853         0.193159        -0.198018
 H         5.149916        -0.687607        -1.718143
 H         0.873827         1.924296        -1.264928
 H         3.340149         2.112950         0.659636
