19
Iteration:  1040
 C        -0.045626        -0.661023         0.031646
 C         1.293871        -0.062062        -0.101119
 C         2.538582        -0.909132        -0.335938
 C         3.441363         0.252956        -0.739532
 C         4.863737         0.125893        -1.133732
 O         2.614324         0.933015        -1.918910
 C         1.674971         1.194724        -0.952064
 C         2.653622         1.388381         0.175329
 O         1.832657         0.693021         1.210926
 H        -0.089944        -1.303129         0.950468
 H        -0.743253         0.130235         0.057955
 H        -0.238486        -1.294253        -0.908966
 H         2.847671        -1.468839         0.603292
 H         2.402385        -1.667416        -1.176370
 H         5.324608         1.155260        -1.258200
 H         5.496327        -0.439165        -0.385829
 H         5.073488        -0.396975        -2.097010
 H         0.806739         1.906291        -1.081467
 H         3.262253         2.244613         0.384020
