19
Iteration:  2209
 C        -0.085352        -0.689770        -0.009756
 C         1.264382        -0.042128        -0.055055
 C         2.540776        -0.861369        -0.466635
 C         3.457151         0.279606        -0.788906
 C         4.920532         0.092825        -1.187691
 O         2.561345         0.902772        -1.818205
 C         1.667878         1.291903        -0.851098
 C         2.669059         1.363795         0.270405
 O         1.894722         0.675947         1.177393
 H        -0.137740        -1.482071         0.751721
 H        -0.956002        -0.062686        -0.046736
 H        -0.117388        -1.411047        -0.927287
 H         2.708921        -1.683559         0.306879
 H         2.389273        -1.290501        -1.370318
 H         5.432757         1.100729        -1.447214
 H         5.507822        -0.521290        -0.391585
 H         4.798046        -0.542989        -2.080454
 H         0.963875         2.035080        -1.056125
 H         3.242286         2.223373         0.679884
