19
Iteration:   593charge 0 multiplicity 1
 C        -0.160294        -0.687386         0.177590
 C         1.293732        -0.072238        -0.013120
 C         2.502426        -0.937536        -0.600306
 C         3.445038         0.313597        -0.784062
 C         4.944668         0.210651        -0.916519
 O         2.609155         0.901024        -1.918049
 C         1.653356         1.301394        -0.974833
 C         2.692106         1.351156         0.181937
 O         1.893449         0.582880         1.108158
 H        -0.060029        -1.659332         0.678760
 H        -0.841095        -0.024851         0.536413
 H        -0.474496        -0.818066        -0.940009
 H         2.866726        -1.469471         0.206405
 H         2.287589        -1.722519        -1.451340
 H         5.247483         1.088815        -1.556607
 H         5.425360         0.209391         0.012381
 H         5.336088        -0.605423        -1.566512
 H         0.906519         2.051187        -1.286982
 H         3.154412         2.286778         0.570425
