19
Iteration:  3894
 C        -0.039964        -0.710693         0.100381
 C         1.250729         0.004546        -0.090008
 C         2.595113        -0.858076        -0.452903
 C         3.384375         0.286067        -0.809164
 C         4.849423         0.105679        -1.168594
 O         2.692718         0.854491        -1.891116
 C         1.676924         1.317527        -0.932277
 C         2.656600         1.369097         0.352478
 O         1.780665         0.603813         1.127430
 H         0.080947        -1.415509         0.887035
 H        -0.633670         0.129127         0.313784
 H        -0.235357        -1.136482        -0.901154
 H         2.739869        -1.293508         0.558315
 H         2.551050        -1.578396        -1.348405
 H         5.233803         1.030967        -1.405883
 H         5.401487        -0.071363        -0.199714
 H         4.987701        -0.702156        -1.823543
 H         0.931161         2.099321        -1.270371
 H         3.229580         2.269669         0.502804
