19
Iteration:  2923
 C        -0.098339        -0.566670         0.068519
 C         1.305637        -0.029201        -0.101159
 C         2.548902        -0.941457        -0.311187
 C         3.437777         0.244850        -0.775222
 C         4.884007         0.208993        -1.139409
 O         2.643595         0.767233        -1.857349
 C         1.649630         1.226712        -0.937226
 C         2.755919         1.377937         0.199113
 O         1.799599         0.660087         1.070093
 H        -0.243259        -1.030319         1.081636
 H        -0.880065         0.172904        -0.012741
 H        -0.358585        -1.337191        -0.618329
 H         2.813718        -1.402976         0.629981
 H         2.450768        -1.790217        -0.970034
 H         5.182565         1.248789        -1.206815
 H         5.536674        -0.225187        -0.307737
 H         4.818401        -0.123903        -2.243934
 H         0.937324         1.895617        -1.332154
 H         3.193495         2.332336         0.625235
