19
Iteration:  3719charge 0 multiplicity 1
 C        -0.061160        -0.716209         0.046276
 C         1.325758        -0.044375        -0.072966
 C         2.503158        -0.975753        -0.462719
 C         3.439172         0.313202        -0.811122
 C         4.906453         0.114304        -1.042526
 O         2.575573         0.957811        -1.887723
 C         1.672901         1.304283        -0.888115
 C         2.698512         1.367137         0.224201
 O         1.836995         0.669027         1.134348
 H        -0.031734        -1.567927         0.811354
 H        -0.846457        -0.005273         0.320323
 H        -0.130547        -1.156149        -1.009951
 H         2.974857        -1.518981         0.368704
 H         2.340149        -1.569562        -1.424971
 H         5.366731         1.050124        -1.312302
 H         5.207823        -0.479684        -0.075962
 H         5.008014        -0.454307        -1.974832
 H         0.804454         1.914287        -0.994642
 H         3.228850         2.249925         0.523524
