19
Iteration:   308
 C        -0.004552        -0.654551         0.247740
 C         1.325609        -0.032525        -0.088904
 C         2.431813        -0.939441        -0.541346
 C         3.382474         0.344543        -0.782811
 C         4.879209         0.250545        -0.883563
 O         2.633095         0.861221        -1.969496
 C         1.707555         1.192420        -1.003766
 C         2.627726         1.345753         0.153219
 O         1.855672         0.570331         1.074380
 H         0.176995        -1.431592         1.024486
 H        -0.769787         0.148086         0.625711
 H        -0.440435        -1.118871        -0.640713
 H         3.041704        -1.447687         0.310856
 H         2.383241        -1.587024        -1.418623
 H         5.263672         1.160575        -0.369920
 H         5.443291        -0.686065        -0.426003
 H         5.165579         0.426818        -1.904656
 H         1.069970         1.997797        -1.400943
 H         2.986596         2.382467         0.399467
