19
Iteration:  1163charge 0 multiplicity 1
 C        -0.067066        -0.664026         0.176637
 C         1.304459        -0.094831        -0.068395
 C         2.548997        -0.903655        -0.580659
 C         3.405503         0.339932        -0.842193
 C         4.862344         0.146194        -0.930252
 O         2.643329         0.801482        -1.988668
 C         1.625114         1.231230        -0.928630
 C         2.656147         1.443167         0.217011
 O         1.852203         0.699511         1.158046
 H         0.130498        -1.616489         0.749381
 H        -0.705851        -0.003714         0.830203
 H        -0.551840        -0.739744        -0.778858
 H         3.144337        -1.562200         0.185209
 H         2.400414        -1.445389        -1.517741
 H         5.357963         0.822008        -1.522613
 H         5.455130         0.047133         0.000317
 H         5.047513        -0.846504        -1.277608
 H         0.817916         1.897052        -1.298534
 H         3.288152         2.294181         0.485998
