19
Iteration:  2059
 C        -0.021813        -0.695839        -0.056847
 C         1.301722        -0.112779        -0.008250
 C         2.581986        -0.903206        -0.409385
 C         3.408026         0.325182        -0.733941
 C         4.746508         0.056273        -1.264123
 O         2.666346         0.952556        -1.850225
 C         1.739947         1.241262        -0.863102
 C         2.668365         1.399813         0.253794
 O         1.809278         0.704988         1.253215
 H        -0.140089        -1.550666         0.576633
 H        -0.807869        -0.035407         0.197699
 H        -0.108391        -0.933897        -1.192232
 H         2.858001        -1.654497         0.444784
 H         2.455409        -1.560112        -1.362659
 H         5.194664         1.030284        -1.669211
 H         5.359065        -0.442430        -0.544333
 H         4.696030        -0.592235        -2.096529
 H         1.004234         1.931016        -1.191052
 H         3.125779         2.401192         0.478397
