19
Iteration:  4221charge 0 multiplicity 1
 C        -0.009265        -0.655939         0.094018
 C         1.307744        -0.003271        -0.057382
 C         2.541693        -0.928675        -0.480965
 C         3.387713         0.290603        -0.654520
 C         4.909768         0.213205        -1.107529
 O         2.627772         0.864018        -1.935021
 C         1.642608         1.193194        -1.028456
 C         2.645313         1.359927         0.226784
 O         1.822234         0.662557         1.182859
 H         0.073024        -1.250057         1.054326
 H        -0.873447        -0.024819         0.212399
 H        -0.263529        -1.436398        -0.608682
 H         2.726977        -1.673151         0.294832
 H         2.456441        -1.355063        -1.470741
 H         5.196592         1.061817        -1.636819
 H         5.441004         0.199796        -0.077436
 H         5.041800        -0.760251        -1.617613
 H         0.983755         1.872751        -1.447387
 H         3.250923         2.150800         0.521928
