19
Iteration:  4425
 C        -0.057303        -0.538472         0.113350
 C         1.296548        -0.027468        -0.041345
 C         2.526890        -0.889819        -0.496049
 C         3.449119         0.282976        -0.769727
 C         4.905191         0.275247        -1.086647
 O         2.601998         0.820980        -1.894325
 C         1.645005         1.104303        -0.981549
 C         2.668739         1.345119         0.232373
 O         1.837974         0.602547         1.174636
 H        -0.210088        -1.211562         1.011265
 H        -0.797638         0.144810         0.070976
 H        -0.249486        -1.080788        -0.778786
 H         2.824246        -1.528746         0.339927
 H         2.358714        -1.519621        -1.394692
 H         5.186560         1.183120        -1.561567
 H         5.681633         0.237431        -0.269778
 H         5.251811        -0.571391        -1.715762
 H         0.862819         1.604416        -1.522422
 H         3.181612         2.176324         0.786930
