19
Iteration:  1288charge 0 multiplicity 1
 C        -0.013124        -0.659986         0.319092
 C         1.290661        -0.068638        -0.087760
 C         2.517002        -0.961610        -0.475421
 C         3.401942         0.320086        -0.816627
 C         4.974434         0.109720        -0.895549
 O         2.557949         0.883570        -1.925193
 C         1.672541         1.350859        -1.089335
 C         2.661948         1.375183         0.092252
 O         1.781771         0.625629         1.051604
 H         0.232197        -1.406572         1.064409
 H        -0.659187         0.097601         0.716499
 H        -0.395023        -1.267135        -0.560424
 H         2.964378        -1.556278         0.243782
 H         2.337963        -1.422535        -1.475707
 H         5.624965         1.041587        -0.743760
 H         5.279411        -0.454401        -0.068785
 H         5.482378        -0.325673        -1.753445
 H         0.930315         2.056206        -1.429626
 H         3.035516         2.339302         0.507502
