19
Iteration:   780charge 0 multiplicity 1
 C        -0.089820        -0.573110         0.234745
 C         1.255788        -0.149818        -0.115152
 C         2.480040        -1.021498        -0.555071
 C         3.367814         0.330629        -0.833559
 C         4.921982         0.244899        -0.883163
 O         2.678217         0.914088        -2.012020
 C         1.633299         1.211501        -0.952667
 C         2.674474         1.342232         0.199399
 O         1.931009         0.606730         1.125282
 H        -0.101863        -1.601421         0.731461
 H        -0.474282         0.248544         0.758341
 H        -0.687628        -0.624722        -0.763585
 H         2.928215        -1.643530         0.224141
 H         2.256973        -1.488285        -1.560213
 H         5.265102         1.150332        -1.363023
 H         5.147245         0.227898         0.225973
 H         5.361154        -0.608300        -1.418814
 H         0.858476         1.961717        -1.219505
 H         3.121515         2.257989         0.523849
