19
Iteration:  1857
 C        -0.055391        -0.575571         0.073686
 C         1.336467        -0.091884         0.037550
 C         2.573600        -0.940865        -0.406409
 C         3.428619         0.293952        -0.759545
 C         4.830392         0.192041        -1.108536
 O         2.609781         0.912211        -1.952109
 C         1.716853         1.178320        -0.918571
 C         2.655090         1.321182         0.193184
 O         1.821531         0.641459         1.139908
 H        -0.232814        -1.399251         0.781692
 H        -0.660474         0.358629         0.007862
 H        -0.106154        -1.103242        -0.806438
 H         2.843699        -1.635420         0.461281
 H         2.340600        -1.522048        -1.373450
 H         5.284537         1.108083        -1.020865
 H         5.290939        -0.495431        -0.427378
 H         4.921113        -0.169769        -2.169951
 H         0.866273         1.968901        -1.029331
 H         3.066912         2.339605         0.331548
