19
Iteration:  2509charge 0 multiplicity 1
 C        -0.075558        -0.716836         0.220485
 C         1.351303        -0.065612        -0.033386
 C         2.413250        -0.891111        -0.600702
 C         3.377175         0.315108        -0.774684
 C         4.979128         0.086802        -0.906525
 O         2.630450         0.945488        -1.936805
 C         1.641952         1.261594        -0.932983
 C         2.672243         1.381659         0.068341
 O         1.888363         0.651059         1.112789
 H         0.007181        -1.332729         1.028939
 H        -0.856840         0.043585         0.412502
 H        -0.565845        -1.314245        -0.473998
 H         2.707347        -1.544287         0.161934
 H         2.071369        -1.436362        -1.528540
 H         5.289710         1.059939        -1.172051
 H         5.465204        -0.318173         0.017350
 H         5.277756        -0.674427        -1.698685
 H         1.058158         2.121343        -1.315166
 H         3.274752         2.231194         0.354022
