19
Iteration:  2487charge 0 multiplicity 1
 C        -0.048843        -0.610300         0.375436
 C         1.285768        -0.014897        -0.111856
 C         2.491253        -0.950734        -0.610083
 C         3.406860         0.296981        -0.849016
 C         4.850837         0.232395        -0.882033
 O         2.687906         0.909001        -2.015043
 C         1.688716         1.206924        -1.038020
 C         2.634217         1.283428         0.228558
 O         1.889902         0.619092         1.085051
 H         0.075776        -1.520597         0.832096
 H        -0.720816         0.130800         0.831777
 H        -0.653402        -0.826498        -0.461191
 H         2.775035        -1.660781         0.085149
 H         2.186538        -1.414446        -1.609469
 H         5.370336         1.151668        -0.954936
 H         5.048006        -0.320441         0.076577
 H         5.134475        -0.643750        -1.551670
 H         1.008386         2.060229        -1.317132
 H         3.171949         2.105982         0.674099
