19
Iteration:  4679charge 0 multiplicity 1
 C        -0.069784        -0.674838         0.171002
 C         1.294177        -0.020689        -0.149192
 C         2.512026        -0.903861        -0.478179
 C         3.435268         0.337576        -0.797787
 C         4.927528         0.155715        -1.001576
 O         2.597199         0.859478        -1.996304
 C         1.712172         1.268250        -0.945953
 C         2.597624         1.361335         0.228887
 O         1.858127         0.571361         1.144658
 H         0.045512        -1.702935         0.494369
 H        -0.531574         0.018300         0.972116
 H        -0.717927        -0.569215        -0.729212
 H         2.694952        -1.501613         0.441153
 H         2.476433        -1.531063        -1.378977
 H         5.311203         0.904901        -1.761936
 H         5.405598         0.468333        -0.044556
 H         5.313440        -0.842670        -1.200121
 H         1.003404         2.190418        -1.077515
 H         3.145419         2.221854         0.668589
