19
Iteration:  1634charge 0 multiplicity 1
 C         0.032614        -0.683254         0.344451
 C         1.291085        -0.036920        -0.121471
 C         2.440153        -0.878520        -0.595571
 C         3.372128         0.334132        -0.857950
 C         4.872248         0.118648        -0.846020
 O         2.705277         0.866483        -1.977888
 C         1.627211         1.174109        -1.022096
 C         2.606539         1.454664         0.192725
 O         1.873909         0.645527         1.056965
 H         0.313343        -1.383880         1.119359
 H        -0.695260        -0.042166         0.856994
 H        -0.409416        -1.124325        -0.623256
 H         2.849108        -1.412514         0.363475
 H         2.306148        -1.540295        -1.547522
 H         5.383244         1.092062        -0.617073
 H         5.157546        -0.671519        -0.064678
 H         5.202504        -0.189355        -1.800136
 H         0.928146         1.745033        -1.543812
 H         3.135402         2.378946         0.543425
