19
Iteration:  1710charge 0 multiplicity 1
 C        -0.142428        -0.664546        -0.004249
 C         1.296366        -0.038546        -0.019620
 C         2.542425        -0.930479        -0.379887
 C         3.488034         0.262132        -0.615676
 C         4.868550         0.257208        -1.150228
 O         2.545452         0.822715        -1.977228
 C         1.786255         1.197456        -0.980186
 C         2.697002         1.364502         0.254898
 O         1.865462         0.679314         1.179944
 H        -0.392659        -1.389400         0.756896
 H        -0.852928         0.122765         0.229375
 H        -0.281904        -1.100706        -1.082040
 H         2.771182        -1.461740         0.625904
 H         2.435818        -1.645167        -1.310963
 H         4.820880         1.156634        -1.801835
 H         5.631220         0.199407        -0.345991
 H         5.027583        -0.555774        -1.772721
 H         0.972951         1.800924        -1.237869
 H         3.203661         2.302113         0.532585
