19
Iteration:  3424charge 0 multiplicity 1
 C        -0.052118        -0.727714        -0.053419
 C         1.275638        -0.060606        -0.061045
 C         2.563739        -0.864783        -0.339648
 C         3.356182         0.313405        -0.696108
 C         4.822748         0.059688        -1.226081
 O         2.655734         0.977899        -1.926275
 C         1.670896         1.254938        -0.888753
 C         2.731953         1.371338         0.246424
 O         1.836500         0.655661         1.173244
 H        -0.002144        -1.547398         0.726585
 H        -0.844921        -0.109016         0.332777
 H        -0.232519        -1.148601        -1.015540
 H         2.894606        -1.404332         0.594656
 H         2.514209        -1.559262        -1.171434
 H         5.191393         1.053809        -1.376994
 H         5.464928        -0.291631        -0.297566
 H         4.880368        -0.705633        -2.072651
 H         0.991178         2.031662        -1.103590
 H         3.179853         2.230655         0.748437
