19
Iteration:   660
 C        -0.132629        -0.626669         0.150893
 C         1.337492        -0.084876        -0.037715
 C         2.495573        -0.913556        -0.560912
 C         3.399205         0.441263        -0.785255
 C         4.901341         0.206070        -0.987386
 O         2.682697         0.894113        -1.992005
 C         1.668447         1.133214        -0.934670
 C         2.671751         1.322982         0.197200
 O         1.848276         0.597996         1.192389
 H        -0.149247        -1.429047         0.907289
 H        -0.684873         0.219761         0.282045
 H        -0.623682        -1.094604        -0.775198
 H         2.969134        -1.290801         0.299896
 H         2.400111        -1.516750        -1.557980
 H         5.605414         1.049942        -1.046923
 H         5.248852        -0.450037        -0.185126
 H         5.020889        -0.422207        -1.890750
 H         0.955522         1.906283        -1.288959
 H         3.011838         2.248135         0.635547
