19
Iteration:   501
 C         0.006448        -0.662895         0.104884
 C         1.327342        -0.132011         0.012832
 C         2.506262        -0.956827        -0.440393
 C         3.372919         0.337462        -0.761794
 C         4.852874         0.222361        -1.029217
 O         2.649677         0.865148        -2.004575
 C         1.694221         1.341197        -0.977242
 C         2.659896         1.351379         0.253468
 O         1.834096         0.606671         1.108726
 H        -0.120606        -1.369433         0.952567
 H        -0.933156         0.102514         0.114431
 H        -0.348239        -1.165700        -0.709664
 H         2.848343        -1.889377         0.290714
 H         2.203962        -1.507469        -1.260329
 H         5.269170         1.208664        -0.925103
 H         5.298419        -0.508873        -0.250985
 H         5.159432         0.111507        -2.050606
 H         0.994384         2.102579        -1.371379
 H         3.192728         2.193374         0.683236
