19
Iteration:  4764charge 0 multiplicity 1
 C        -0.003125        -0.651315         0.093399
 C         1.343759        -0.040933        -0.091849
 C         2.587335        -0.981020        -0.510584
 C         3.377355         0.324488        -0.800986
 C         4.887460         0.135325        -1.026257
 O         2.623976         0.884653        -1.932119
 C         1.696738         1.291139        -0.920317
 C         2.648320         1.340654         0.189009
 O         1.751232         0.665284         1.204082
 H        -0.008238        -1.157849         1.107195
 H        -0.718503         0.194465         0.178050
 H        -0.389625        -1.444768        -0.537065
 H         2.922824        -1.783175         0.201757
 H         2.307509        -1.429741        -1.477699
 H         5.421005         1.093848        -1.112907
 H         5.346511        -0.504086        -0.260317
 H         4.919837        -0.280947        -2.009688
 H         0.901292         2.047996        -1.185519
 H         3.180428         2.283061         0.647514
