19
Iteration:   798
 C        -0.089518        -0.605523         0.223750
 C         1.291040        -0.029002        -0.114907
 C         2.483703        -0.944912        -0.643052
 C         3.472841         0.173714        -0.819525
 C         4.855178         0.260325        -0.841396
 O         2.630153         0.886137        -1.879162
 C         1.651043         1.252529        -0.980652
 C         2.651930         1.346951         0.106141
 O         1.934965         0.621985         1.156971
 H        -0.026643        -1.584867         0.659593
 H        -0.697725         0.075847         0.903791
 H        -0.713494        -0.948943        -0.695621
 H         2.757023        -1.681620         0.073765
 H         2.249262        -1.579941        -1.601374
 H         5.140597         1.314456        -1.344776
 H         5.267704         0.220968         0.103124
 H         5.283533        -0.593241        -1.478949
 H         0.833754         1.852090        -1.395322
 H         3.415413         2.181871         0.258769
