19
Iteration:   793
 C        -0.124486        -0.583952         0.192630
 C         1.338919        -0.067261        -0.118955
 C         2.502176        -0.963067        -0.661291
 C         3.396802         0.171200        -0.836569
 C         4.871875         0.246654        -0.879569
 O         2.636552         0.903846        -1.871910
 C         1.649693         1.250097        -0.996974
 C         2.607988         1.333881         0.117770
 O         1.967560         0.652920         1.168939
 H        -0.000195        -1.530285         0.811616
 H        -0.659434        -0.024274         0.961136
 H        -0.803706        -0.846459        -0.572669
 H         2.708268        -1.754692         0.156319
 H         2.470394        -1.544203        -1.522981
 H         5.138731         1.161407        -1.215519
 H         5.338155         0.292261         0.209503
 H         5.463493        -0.510718        -1.335012
 H         0.859331         1.889915        -1.392913
 H         3.248285         2.144313         0.428721
