19
Iteration:   357charge 0 multiplicity 1
 C        -0.073352        -0.657634         0.010404
 C         1.351263        -0.016644         0.001120
 C         2.581308        -0.894093        -0.359484
 C         3.464131         0.287020        -0.783546
 C         4.968604         0.183630        -1.160621
 O         2.646468         0.866636        -1.945914
 C         1.593309         1.237229        -0.908911
 C         2.530066         1.355495         0.259030
 O         1.819679         0.631016         1.191770
 H        -0.282986        -1.402365         0.775605
 H        -0.859493         0.044368        -0.094984
 H        -0.131038        -1.208854        -0.956353
 H         2.903053        -1.377161         0.534095
 H         2.430179        -1.620824        -1.211616
 H         5.494378         1.157029        -1.258420
 H         5.407284        -0.420817        -0.445408
 H         5.066284        -0.317842        -2.172608
 H         0.803319         1.877784        -1.335821
 H         3.068422         2.203880         0.634822
