19
Iteration:   969charge 0 multiplicity 1
 C        -0.075597        -0.594306         0.247553
 C         1.279515        -0.126395        -0.014080
 C         2.571948        -0.914423        -0.543365
 C         3.392369         0.304517        -0.831988
 C         4.850315         0.173675        -0.876022
 O         2.615371         0.920311        -2.002841
 C         1.682297         1.267189        -1.016316
 C         2.670188         1.312610         0.113414
 O         1.874909         0.583896         1.104767
 H        -0.016174        -1.626680         0.697709
 H        -0.636518         0.172459         0.933317
 H        -0.710642        -0.754009        -0.599495
 H         3.069280        -1.568370         0.226635
 H         2.399865        -1.439770        -1.485465
 H         5.257661         1.047770        -1.352895
 H         5.173788         0.291113         0.192882
 H         5.397141        -0.666144        -1.266087
 H         1.013943         1.996847        -1.478908
 H         3.095812         2.237520         0.633604
