19
Iteration:   103charge 0 multiplicity 1
 C        -0.081125        -0.706320         0.184074
 C         1.277647        -0.081676        -0.151908
 C         2.494394        -0.888336        -0.527636
 C         3.450599         0.301289        -0.824278
 C         4.932979         0.194083        -0.950524
 O         2.636367         0.953471        -1.977913
 C         1.688941         1.226241        -0.923915
 C         2.614025         1.383799         0.199848
 O         1.867021         0.564444         1.139168
 H         0.127722        -1.607289         0.749567
 H        -0.806990        -0.036482         0.698665
 H        -0.464829        -1.072819        -0.731046
 H         2.777149        -1.461581         0.338233
 H         2.262637        -1.441247        -1.434623
 H         5.258776        -0.635835        -1.585831
 H         5.395670         1.147826        -1.253705
 H         5.255421        -0.038383         0.049337
 H         1.056574         2.130279        -1.007475
 H         2.897394         2.414655         0.612686
