19
Iteration:   866charge 0 multiplicity 1
 C        -0.059396        -0.687866         0.027069
 C         1.353545        -0.065636        -0.062190
 C         2.552373        -0.897393        -0.338119
 C         3.387450         0.348343        -0.726348
 C         4.845192         0.134115        -1.185206
 O         2.677871         0.901555        -1.924935
 C         1.726299         1.223334        -0.977897
 C         2.608963         1.415228         0.265399
 O         1.806151         0.657201         1.220764
 H        -0.329088        -1.264911         0.958456
 H        -0.762306         0.094001        -0.030449
 H        -0.261118        -1.431257        -0.870728
 H         2.932376        -1.674935         0.295731
 H         2.219929        -1.443037        -1.295304
 H         5.695327         0.860998        -1.218388
 H         5.326573        -0.607658        -0.530317
 H         4.819032        -0.457643        -2.140099
 H         0.934375         1.855935        -1.406254
 H         3.051346         2.330245         0.572183
