19
Iteration:  1072
 C        -0.093085        -0.607543         0.107910
 C         1.265894        -0.137246        -0.117717
 C         2.562997        -0.911974        -0.377369
 C         3.403906         0.338176        -0.823039
 C         4.872341         0.202078        -1.130189
 O         2.659612         0.829538        -1.879378
 C         1.714257         1.184803        -0.949110
 C         2.617281         1.367732         0.202653
 O         1.870014         0.685418         1.162613
 H        -0.281161        -1.056618         1.083685
 H        -0.831698         0.134819         0.005266
 H        -0.377434        -1.331343        -0.723632
 H         3.005612        -1.418206         0.515365
 H         2.393539        -1.564509        -1.288354
 H         5.412769         1.161297        -0.921325
 H         5.191383        -0.465743        -0.393594
 H         5.120798        -0.215277        -2.118665
 H         0.914520         1.938783        -1.136207
 H         3.198297         2.180106         0.579526
