19
Iteration:  3867charge 0 multiplicity 1
 C        -0.069487        -0.697813         0.163592
 C         1.273685        -0.144227        -0.072192
 C         2.443544        -0.944745        -0.497470
 C         3.408035         0.324145        -0.798477
 C         4.949224         0.114043        -0.965383
 O         2.654543         1.038536        -1.955809
 C         1.654338         1.276258        -0.976667
 C         2.651059         1.354401         0.203203
 O         1.883818         0.618335         1.143961
 H        -0.077862        -1.509478         0.927583
 H        -0.599551         0.238295         0.500938
 H        -0.397771        -1.037885        -0.809059
 H         2.720245        -1.613202         0.316615
 H         2.230950        -1.382512        -1.435607
 H         5.408970         1.000162        -1.578881
 H         5.492159         0.113691        -0.035808
 H         5.194160        -0.919537        -1.438587
 H         0.746584         1.794481        -1.287802
 H         3.285628         2.261255         0.242382
