19
Iteration:  2179charge 0 multiplicity 1
 C        -0.084521        -0.567676         0.203202
 C         1.328450        -0.101506        -0.044876
 C         2.528614        -0.954079        -0.520606
 C         3.372375         0.249917        -0.907142
 C         4.803602         0.209666        -0.960184
 O         2.689330         0.999556        -1.969846
 C         1.682723         1.299297        -0.919916
 C         2.606176         1.284486         0.203680
 O         1.912633         0.538750         1.155761
 H        -0.084464        -1.151984         1.122117
 H        -0.914912         0.135359         0.193635
 H        -0.309777        -1.321148        -0.664559
 H         2.945185        -1.674791         0.197251
 H         2.343573        -1.507821        -1.463923
 H         5.254275         1.229798        -1.101817
 H         5.190139        -0.505835        -0.301513
 H         5.123871        -0.195884        -1.901929
 H         1.008821         2.102330        -1.225652
 H         3.306855         2.072355         0.612863
