19
Iteration:  4386charge 0 multiplicity 1
 C        -0.148994        -0.701931         0.116895
 C         1.288762        -0.055726        -0.011398
 C         2.569484        -0.947807        -0.434108
 C         3.412644         0.240428        -0.830597
 C         4.952228         0.230505        -1.041230
 O         2.590494         0.914410        -1.961657
 C         1.676865         1.214387        -0.950479
 C         2.742015         1.321263         0.211454
 O         1.819936         0.706498         1.138100
 H        -0.374750        -1.296217         1.029266
 H        -0.880519         0.201334         0.062269
 H        -0.207702        -1.429087        -0.725422
 H         2.996712        -1.292927         0.526501
 H         2.401412        -1.753426        -1.138172
 H         5.282372         1.282942        -0.880070
 H         5.439711        -0.503723        -0.367586
 H         5.150646        -0.047624        -2.097878
 H         0.814105         1.877298        -1.258885
 H         3.236281         2.250481         0.390785
