19
Iteration:  3282charge 0 multiplicity 1
 C        -0.028070        -0.745376         0.093508
 C         1.329830        -0.038929        -0.115131
 C         2.508374        -0.859333        -0.441619
 C         3.357639         0.308255        -0.828532
 C         4.796470         0.108105        -1.018123
 O         2.661469         0.972851        -1.932938
 C         1.616613         1.267617        -0.936320
 C         2.676141         1.310635         0.152634
 O         1.886778         0.655978         1.209434
 H         0.030456        -1.517796         1.010680
 H        -0.692131         0.129145         0.253130
 H        -0.103873        -1.235443        -0.884274
 H         3.069704        -1.481769         0.419672
 H         2.362686        -1.569209        -1.305638
 H         5.271567         0.837929        -1.626173
 H         5.221411         0.172319         0.094499
 H         4.963361        -0.936997        -1.476234
 H         0.960667         2.074089        -1.124359
 H         3.399070         2.096972         0.427819
