19
Iteration:  4870
 C        -0.125466        -0.518902         0.044961
 C         1.297649        -0.108110        -0.066974
 C         2.547525        -0.937500        -0.407972
 C         3.357551         0.239634        -0.743073
 C         4.796988         0.307328        -1.079176
 O         2.690026         0.857045        -1.902456
 C         1.681494         1.206315        -0.925509
 C         2.710026         1.376334         0.194677
 O         1.892497         0.529412         1.099907
 H        -0.182895        -1.504365         0.624445
 H        -0.657169         0.133692         0.701020
 H        -0.747834        -0.585525        -0.832910
 H         3.046977        -1.545796         0.371147
 H         2.433309        -1.458467        -1.353004
 H         5.164301         1.308516        -1.213398
 H         5.281007        -0.007353        -0.094116
 H         5.306762        -0.404175        -1.798060
 H         0.867468         1.746615        -1.315072
 H         3.322403         2.181821         0.636868
