19
Iteration:   226
 C        -0.170462        -0.807549         0.037311
 C         1.329786        -0.048551        -0.049089
 C         2.593450        -0.913943        -0.370002
 C         3.453550         0.281914        -0.768656
 C         4.897349         0.179836        -1.137130
 O         2.642220         0.876748        -1.922364
 C         1.672545         1.267456        -0.868897
 C         2.682700         1.457761         0.192898
 O         1.807449         0.669499         1.161603
 H        -0.443067        -1.560492         0.785686
 H        -0.822844        -0.021730         0.222227
 H        -0.497387        -1.194643        -1.015413
 H         2.917486        -1.544510         0.451968
 H         2.442157        -1.525171        -1.357702
 H         5.198923         1.209090        -1.499421
 H         5.442670         0.083420        -0.265960
 H         5.196752        -0.696293        -1.849158
 H         0.924983         2.045391        -1.155490
 H         3.281914         2.299190         0.514487
