19
Iteration:  3369charge 0 multiplicity 1
 C        -0.119993        -0.571013         0.082707
 C         1.255278        -0.098951        -0.042763
 C         2.546583        -0.961767        -0.430462
 C         3.419545         0.351089        -0.771159
 C         4.938355         0.254125        -1.053657
 O         2.613710         0.828391        -1.929609
 C         1.620907         1.264232        -0.934360
 C         2.687420         1.323999         0.177069
 O         1.882620         0.579861         1.132553
 H        -0.221951        -1.516362         0.690343
 H        -0.849428         0.165557         0.391004
 H        -0.511814        -1.021919        -0.810608
 H         3.026607        -1.164521         0.581133
 H         2.546553        -1.714668        -1.227153
 H         5.566322         1.073325        -0.787684
 H         5.294343        -0.749870        -0.518994
 H         5.068858         0.255789        -2.197439
 H         0.985172         2.088101        -1.123555
 H         3.316801         2.143920         0.518251
