19
Iteration:  4896
 C        -0.076214        -0.541583         0.039803
 C         1.263277        -0.072712        -0.086992
 C         2.575324        -0.933294        -0.466705
 C         3.437195         0.233805        -0.779305
 C         5.010118         0.266074        -1.041005
 O         2.524148         0.880653        -1.965110
 C         1.618978         1.186262        -0.889025
 C         2.681569         1.276103         0.254878
 O         1.830793         0.624207         1.170846
 H        -0.134893        -1.531421         0.431046
 H        -0.772418         0.033313         0.706834
 H        -0.542965        -0.534517        -0.944871
 H         2.908380        -1.558486         0.387328
 H         2.286285        -1.508506        -1.376055
 H         5.403909         1.116151        -1.699559
 H         5.576489         0.351798        -0.097056
 H         5.410422        -0.662059        -1.417528
 H         1.001184         2.048885        -1.365983
 H         3.397188         2.023048         0.795928
