19
Iteration:  2695charge 0 multiplicity 1
 C        -0.070162        -0.688162         0.251752
 C         1.255946        -0.069675        -0.113114
 C         2.474181        -0.845795        -0.382029
 C         3.435023         0.257103        -0.785249
 C         4.894971         0.094472        -1.039145
 O         2.654666         0.904418        -1.975930
 C         1.693716         1.269752        -1.025867
 C         2.688901         1.342268         0.219368
 O         1.792271         0.678555         1.051922
 H         0.130078        -1.542303         0.928144
 H        -0.722539         0.079881         0.719382
 H        -0.471810        -0.949226        -0.703569
 H         2.976420        -1.413105         0.444409
 H         2.517084        -1.604425        -1.202219
 H         5.213148         1.016991        -1.512420
 H         5.404001        -0.000335        -0.031684
 H         5.246013        -0.735086        -1.588340
 H         1.100285         2.112874        -1.280373
 H         3.321106         2.224730         0.585291
