19
Iteration:  1201
 C        -0.104025        -0.648760         0.074549
 C         1.329578        -0.095273         0.010839
 C         2.565620        -0.956421        -0.333942
 C         3.342528         0.281166        -0.784844
 C         4.871929         0.226192        -1.109970
 O         2.653353         0.818350        -1.954701
 C         1.745362         1.312694        -0.921294
 C         2.689869         1.373381         0.206322
 O         1.819743         0.667900         1.085894
 H        -0.311603        -1.406207         0.808114
 H        -0.840268         0.125000         0.211371
 H        -0.327665        -1.143680        -0.935940
 H         2.918074        -1.336210         0.564948
 H         2.430492        -1.766858        -1.053662
 H         5.228982         1.230238        -1.666349
 H         5.445148         0.004397        -0.205528
 H         4.879479        -0.595016        -1.908572
 H         0.803799         1.809652        -1.213538
 H         3.258424         2.219003         0.691556
