19
Iteration:  4327charge 0 multiplicity 1
 C        -0.011013        -0.749695         0.234090
 C         1.278993        -0.067989        -0.094662
 C         2.516784        -0.888854        -0.381133
 C         3.365765         0.350377        -0.842118
 C         4.867755         0.151649        -0.968171
 O         2.710808         0.949225        -1.957649
 C         1.641527         1.276067        -1.025190
 C         2.694677         1.333510         0.115518
 O         1.797164         0.628805         1.095834
 H         0.225876        -1.688659         0.862350
 H        -0.640047        -0.145091         0.819710
 H        -0.628401        -0.983862        -0.637412
 H         2.781671        -1.412390         0.521695
 H         2.331757        -1.594656        -1.201153
 H         5.533889         0.987514        -0.794580
 H         5.241435        -0.615929        -0.250605
 H         5.200649        -0.210775        -1.940516
 H         0.904254         2.023391        -1.301573
 H         3.009427         2.371501         0.334727
