19
Iteration:  3801
 C        -0.156950        -0.613687         0.179426
 C         1.316386        -0.053130        -0.057141
 C         2.473145        -0.953857        -0.484259
 C         3.410674         0.275927        -0.886609
 C         4.947233         0.264591        -1.041037
 O         2.710307         0.931710        -1.917322
 C         1.648363         1.188606        -0.942999
 C         2.718126         1.318249         0.144908
 O         1.834981         0.580784         1.161232
 H        -0.141635        -1.471315         0.829646
 H        -0.869148         0.211562         0.452996
 H        -0.575380        -0.931526        -0.753033
 H         2.849195        -1.546217         0.358757
 H         2.414879        -1.625308        -1.290488
 H         5.225797         1.304059        -0.772855
 H         5.292797        -0.140284        -0.158180
 H         5.032471        -0.415455        -1.877566
 H         0.853400         1.948899        -1.193309
 H         3.256142         2.179097         0.640442
