19
Iteration:  4666
 C        -0.133248        -0.737352         0.177982
 C         1.257611        -0.115160        -0.023631
 C         2.532789        -0.848162        -0.524364
 C         3.392998         0.298509        -0.813987
 C         4.887748         0.132276        -0.937034
 O         2.687934         0.971189        -1.937187
 C         1.675299         1.281506        -0.959052
 C         2.739766         1.375295         0.172957
 O         1.850153         0.617237         1.070058
 H        -0.120702        -1.750391         0.741327
 H        -0.669324        -0.147990         0.930276
 H        -0.774393        -0.853136        -0.690205
 H         3.053749        -1.369379         0.327919
 H         2.336187        -1.561781        -1.318930
 H         5.128117         0.785955        -1.746725
 H         5.571693         0.294432        -0.091001
 H         4.949816        -0.839596        -1.395793
 H         0.847188         1.879580        -1.464868
 H         3.178325         2.344618         0.555137
