19
Iteration:  2841charge 0 multiplicity 1
 C        -0.081819        -0.723104         0.265978
 C         1.311650        -0.058394        -0.087874
 C         2.544775        -0.886036        -0.479900
 C         3.333444         0.274965        -0.880466
 C         4.834031         0.068557        -0.888051
 O         2.664015         0.909634        -1.997490
 C         1.642777         1.275564        -0.975692
 C         2.663911         1.428073         0.087927
 O         1.928769         0.697362         1.068322
 H         0.173820        -1.664893         0.727634
 H        -0.652810        -0.110436         0.929380
 H        -0.628939        -0.897611        -0.697246
 H         2.866313        -1.311403         0.539388
 H         2.369657        -1.698066        -1.222299
 H         5.558460         0.902172        -1.024991
 H         4.977520        -0.021451         0.192880
 H         5.309945        -0.867608        -1.139903
 H         0.740653         1.888555        -1.270433
 H         3.159372         2.355130         0.404620
