19
Iteration:   208
 C        -0.039474        -0.654899        -0.020575
 C         1.331555        -0.125863         0.033017
 C         2.494370        -0.921073        -0.392754
 C         3.406983         0.331794        -0.786053
 C         4.878815         0.232566        -1.164732
 O         2.649381         0.912424        -1.896302
 C         1.688482         1.190772        -0.910808
 C         2.660492         1.264521         0.217428
 O         1.787217         0.718070         1.178842
 H        -0.056235        -1.407299         0.808081
 H        -0.930063         0.101296         0.022878
 H         0.041676        -1.175391        -0.966002
 H         3.063516        -1.500002         0.476203
 H         2.432223        -1.625008        -1.169239
 H         5.145630         0.936763        -1.945215
 H         5.640837         0.414680        -0.275003
 H         4.950732        -0.807337        -1.452986
 H         0.912882         1.840542        -1.249966
 H         3.097030         2.159644         0.620973
