19
Iteration:  2069charge 0 multiplicity 1
 C        -0.101238        -0.730794        -0.047579
 C         1.334269        -0.063165         0.007262
 C         2.536637        -0.901303        -0.410300
 C         3.466275         0.323698        -0.801805
 C         4.846534         0.041649        -1.276457
 O         2.627505         0.895512        -1.852820
 C         1.686925         1.300542        -0.879104
 C         2.640645         1.427212         0.330925
 O         1.857707         0.703671         1.219736
 H        -0.103399        -1.734593         0.358575
 H        -0.920129        -0.097614         0.214494
 H        -0.297755        -1.056046        -1.170286
 H         2.966795        -1.605541         0.494602
 H         2.368124        -1.441895        -1.402375
 H         5.433789         0.972027        -1.617826
 H         5.344868        -0.302649        -0.378342
 H         4.818912        -0.703059        -1.994770
 H         1.034087         2.068628        -1.141424
 H         3.014438         2.382111         0.794312
