19
Iteration:   668charge 0 multiplicity 1
 C        -0.040150        -0.630847         0.110615
 C         1.318284        -0.107977        -0.015548
 C         2.517200        -0.920173        -0.531076
 C         3.416524         0.345314        -0.785421
 C         4.866061         0.163862        -1.006355
 O         2.692358         0.941514        -1.970828
 C         1.615455         1.168295        -0.892811
 C         2.622430         1.339188         0.226945
 O         1.837522         0.643248         1.135698
 H        -0.216978        -1.242742         0.980136
 H        -0.731466         0.204246         0.229699
 H        -0.213320        -1.079471        -0.960530
 H         2.945258        -1.400206         0.335347
 H         2.538065        -1.708344        -1.351851
 H         5.560456         1.061122        -1.132560
 H         5.259941        -0.506072        -0.319176
 H         4.907690        -0.290911        -2.028748
 H         0.871674         1.900517        -1.186848
 H         3.152398         2.250891         0.613149
