19
Iteration:  1006charge 0 multiplicity 1
 C        -0.064364        -0.694583         0.130319
 C         1.340289        -0.055863        -0.045435
 C         2.521449        -0.867033        -0.451841
 C         3.414738         0.283331        -0.721852
 C         4.891248         0.109020        -0.981777
 O         2.572733         0.891847        -1.997206
 C         1.686723         1.265759        -1.019377
 C         2.682870         1.371753         0.190411
 O         1.839852         0.657595         1.171875
 H         0.068455        -1.584072         0.731397
 H        -0.820419        -0.095387         0.646764
 H        -0.410125        -1.079795        -0.913803
 H         2.744653        -1.639586         0.284415
 H         2.347054        -1.381646        -1.497733
 H         5.148598         1.188143        -1.403033
 H         5.411320         0.016546        -0.080125
 H         5.130343        -0.695695        -1.736814
 H         1.095656         2.139807        -1.335163
 H         3.347443         2.229291         0.397470
