19
Iteration:  3909charge 0 multiplicity 1
 C        -0.007665        -0.646013         0.008328
 C         1.348541        -0.029147        -0.073443
 C         2.487998        -0.921672        -0.403181
 C         3.463229         0.282378        -0.792922
 C         4.936234         0.141684        -1.159882
 O         2.589469         0.872573        -1.903921
 C         1.717741         1.258173        -0.898491
 C         2.648523         1.383437         0.245623
 O         1.741782         0.669311         1.209103
 H         0.024472        -1.437746         0.829173
 H        -0.963309        -0.032391         0.296123
 H        -0.316531        -1.282455        -0.875960
 H         2.893024        -1.474141         0.450207
 H         2.232986        -1.529557        -1.244970
 H         5.451361         1.126549        -1.504664
 H         5.567964        -0.412200        -0.435226
 H         5.039442        -0.524461        -2.117499
 H         0.903574         1.966533        -1.242402
 H         3.071460         2.144724         0.945296
