19
Iteration:  1868
 C        -0.048871        -0.597956        -0.027921
 C         1.376123        -0.086807         0.023868
 C         2.597542        -0.895183        -0.346180
 C         3.384449         0.255936        -0.898984
 C         4.853218         0.171192        -1.172012
 O         2.646525         0.833149        -1.954011
 C         1.667603         1.239390        -0.841999
 C         2.668221         1.392038         0.260491
 O         1.774392         0.651122         1.208824
 H        -0.346683        -1.243243         0.821915
 H        -0.887694         0.138683         0.102257
 H        -0.218293        -1.016478        -0.954917
 H         3.217868        -1.504245         0.395960
 H         2.310170        -1.585106        -1.220198
 H         5.303169         1.096211        -1.156590
 H         5.304270        -0.454371        -0.424640
 H         5.023436        -0.312141        -2.173241
 H         0.813739         1.970397        -1.147710
 H         3.108858         2.253246         0.807964
