19
Iteration:  2079
 C        -0.107543        -0.762490        -0.049016
 C         1.307820         0.021987        -0.015990
 C         2.516274        -0.844077        -0.425772
 C         3.424568         0.307570        -0.837428
 C         4.982050         0.031692        -1.214756
 O         2.595991         0.871224        -1.879795
 C         1.623213         1.328352        -0.842244
 C         2.653876         1.448787         0.335459
 O         1.870037         0.641205         1.181434
 H        -0.106128        -1.689082         0.548811
 H        -0.871277        -0.179349         0.458941
 H        -0.360198        -0.854214        -1.173831
 H         2.988423        -1.493702         0.468393
 H         2.248387        -1.525235        -1.240571
 H         5.517088         0.915001        -1.696319
 H         5.588385        -0.299955        -0.352839
 H         5.024802        -0.751704        -1.903465
 H         0.824282         1.934164        -1.133493
 H         3.227111         2.205989         0.892062
