19
Iteration:  1972
 C        -0.071835        -0.573373         0.301234
 C         1.324268        -0.084017        -0.090597
 C         2.516490        -0.979049        -0.646995
 C         3.326001         0.299740        -0.896085
 C         4.816271         0.192810        -0.831975
 O         2.680688         0.960128        -2.018497
 C         1.645825         1.277414        -0.968369
 C         2.607405         1.300971         0.193885
 O         1.990580         0.543973         1.125108
 H         0.122469        -1.313916         1.012580
 H        -0.607423         0.259613         0.595892
 H        -0.737601        -1.168485        -0.407965
 H         2.777548        -1.611662         0.175045
 H         2.227157        -1.476004        -1.599586
 H         5.230240         1.278480        -1.080245
 H         5.120927        -0.150760         0.149749
 H         5.368410        -0.441871        -1.534300
 H         1.005780         2.022399        -1.323835
 H         3.125727         2.156023         0.655270
