19
Iteration:  1215charge 0 multiplicity 1
 C        -0.081165        -0.606945         0.032067
 C         1.267652        -0.026127        -0.092443
 C         2.629347        -0.930834        -0.375497
 C         3.443001         0.248280        -0.788272
 C         4.820423         0.227142        -1.142445
 O         2.598670         0.788955        -1.919034
 C         1.675890         1.206964        -0.970238
 C         2.698206         1.303136         0.247780
 O         1.790425         0.713187         1.218200
 H        -0.123373        -1.250181         0.987619
 H        -0.782919         0.199526         0.123347
 H        -0.251236        -1.343982        -0.787411
 H         3.006681        -1.399991         0.656999
 H         2.599529        -1.634164        -1.173270
 H         5.213373         1.292675        -1.334780
 H         5.384825        -0.092743        -0.288062
 H         5.178575        -0.424548        -2.047827
 H         1.139459         2.212292        -1.281360
 H         3.304473         2.179539         0.520003
