19
Iteration:  4557charge 0 multiplicity 1
 C        -0.156806        -0.555597         0.070324
 C         1.299392        -0.124976        -0.068764
 C         2.596396        -0.924496        -0.451667
 C         3.400603         0.320715        -0.664648
 C         4.921012         0.271392        -1.120038
 O         2.603107         0.745866        -1.968754
 C         1.721321         1.181225        -0.852415
 C         2.671084         1.394745         0.168732
 O         1.819454         0.621452         1.147787
 H        -0.087895        -1.002567         1.141953
 H        -0.619080         0.363834         0.063908
 H        -0.548258        -1.271716        -0.611046
 H         2.847232        -1.620796         0.375542
 H         2.506002        -1.382863        -1.435428
 H         5.311953         1.217760        -0.863767
 H         5.593798        -0.500812        -0.614609
 H         4.928745         0.299447        -2.233646
 H         0.938859         1.879408        -1.145547
 H         3.271003         2.211994         0.572258
