19
Iteration:   140
 C         0.004751        -0.652655         0.216358
 C         1.321909        -0.122944        -0.097918
 C         2.450412        -1.010511        -0.543849
 C         3.363929         0.307166        -0.829240
 C         4.876509         0.244235        -0.926889
 O         2.702573         0.959514        -1.941871
 C         1.722037         1.230591        -0.968422
 C         2.551765         1.369203         0.210453
 O         1.858542         0.615828         1.084742
 H         0.123390        -1.471650         0.962412
 H        -0.592757         0.122199         0.665034
 H        -0.514991        -1.007485        -0.785151
 H         2.871414        -1.750251         0.161317
 H         2.096765        -1.614477        -1.470027
 H         5.293883         0.295213        -1.992957
 H         5.225331         1.137450        -0.446509
 H         5.358104        -0.659796        -0.342631
 H         0.908630         1.957632        -1.102397
 H         3.099973         2.241272         0.425152
