19
Iteration:  4094charge 0 multiplicity 1
 C        -0.089434        -0.627620         0.043299
 C         1.271939        -0.055078        -0.048512
 C         2.579576        -0.910729        -0.390296
 C         3.402459         0.331911        -0.743422
 C         4.904697         0.262424        -1.140564
 O         2.634762         0.749760        -1.971298
 C         1.678108         1.256879        -0.906970
 C         2.692468         1.331381         0.233294
 O         1.800272         0.638691         1.184735
 H        -0.202488        -1.381094         0.765471
 H        -0.706856         0.328675         0.235014
 H        -0.295623        -1.052291        -0.962698
 H         2.861046        -1.528899         0.499887
 H         2.559682        -1.621507        -1.215068
 H         5.084912         1.195361        -1.641017
 H         5.503324         0.104456        -0.269667
 H         5.063045        -0.562194        -1.836899
 H         0.934281         1.996554        -1.211605
 H         3.300208         2.067459         0.753518
