19
Iteration:  2970charge 0 multiplicity 1
 C        -0.023293        -0.713023         0.247743
 C         1.289442        -0.077662        -0.072664
 C         2.485772        -0.866298        -0.507114
 C         3.344223         0.303695        -0.812799
 C         4.878219         0.048342        -0.892907
 O         2.661573         0.921120        -1.961499
 C         1.647142         1.231136        -0.980616
 C         2.605527         1.406833         0.054096
 O         1.941137         0.728602         1.077858
 H         0.054095        -1.334565         1.202266
 H        -0.851765        -0.020356         0.375423
 H        -0.272183        -1.404483        -0.621900
 H         2.793253        -1.461038         0.362083
 H         2.363097        -1.540782        -1.301523
 H         5.660910         0.864269        -0.655016
 H         5.068219        -0.628024        -0.012720
 H         5.158507        -0.409010        -1.799977
 H         0.887520         2.003852        -1.201481
 H         3.113809         2.381649         0.442889
