19
Iteration:   215
 C        -0.092841        -0.715716        -0.018446
 C         1.273434        -0.151749         0.051126
 C         2.561915        -0.925311        -0.343601
 C         3.408008         0.333904        -0.794758
 C         4.900746         0.225126        -1.135500
 O         2.669945         0.897075        -1.924206
 C         1.673647         1.239149        -0.898669
 C         2.719332         1.338971         0.223916
 O         1.792344         0.715751         1.144352
 H        -0.213820        -1.454085         0.791032
 H        -0.799894         0.038069         0.083221
 H        -0.269171        -1.264056        -1.040076
 H         2.957486        -1.579606         0.409397
 H         2.245277        -1.548210        -1.283816
 H         5.149066         0.966686        -1.945332
 H         5.533357         0.249329        -0.332411
 H         5.077135        -0.783753        -1.727614
 H         0.859120         1.994143        -1.012209
 H         3.077583         2.283378         0.624495
