19
Iteration:  1965
 C        -0.085757        -0.597413         0.321141
 C         1.262447        -0.077078        -0.106959
 C         2.524113        -0.903679        -0.615200
 C         3.369564         0.335331        -0.876818
 C         4.840957         0.201261        -0.845693
 O         2.646216         0.948540        -2.004405
 C         1.661781         1.254302        -0.996934
 C         2.668857         1.267257         0.195553
 O         1.960342         0.530493         1.093978
 H        -0.011170        -1.370347         1.166937
 H        -0.789038         0.211828         0.779022
 H        -0.643426        -1.005584        -0.542153
 H         2.937351        -1.615817         0.077240
 H         2.463540        -1.407698        -1.638398
 H         5.337974         1.140888        -1.076159
 H         5.012257        -0.094793         0.199913
 H         5.262699        -0.638469        -1.540257
 H         0.893396         2.075481        -1.252731
 H         3.272905         2.114262         0.572906
