19
Iteration:  2865charge 0 multiplicity 1
 C        -0.038917        -0.592698         0.127461
 C         1.350638        -0.048562        -0.018833
 C         2.546895        -0.901435        -0.433641
 C         3.383953         0.347964        -0.758388
 C         4.894109         0.173954        -0.944263
 O         2.555676         0.783847        -1.993659
 C         1.606003         1.205949        -1.030585
 C         2.680823         1.330721         0.122266
 O         1.917961         0.685135         1.158136
 H        -0.022427        -1.511249         0.600340
 H        -0.720520         0.110032         0.646399
 H        -0.362222        -0.708835        -0.913404
 H         2.737397        -1.622357         0.370665
 H         2.200486        -1.395452        -1.387453
 H         5.506738         0.985598        -1.377249
 H         5.386707         0.050892         0.017419
 H         5.116517        -0.876010        -1.363151
 H         0.786243         1.903113        -1.399269
 H         3.054205         2.205612         0.495000
