19
Iteration:  4263
 C        -0.122311        -0.559411         0.017965
 C         1.289743        -0.053116        -0.066588
 C         2.563762        -0.988438        -0.312612
 C         3.436465         0.276279        -0.813075
 C         4.887013         0.254117        -1.065608
 O         2.605360         0.891733        -1.945557
 C         1.588824         1.236150        -1.017172
 C         2.627780         1.334490         0.188672
 O         1.962839         0.577739         1.223299
 H        -0.131175        -1.508942         0.758629
 H        -0.802062         0.257639         0.197300
 H        -0.277149        -1.048449        -0.966238
 H         2.949894        -1.414357         0.588208
 H         2.502853        -1.756696        -1.071339
 H         5.089892         1.102848        -1.717686
 H         5.514752         0.517800        -0.119494
 H         5.317476        -0.707037        -1.445554
 H         0.719190         1.707064        -1.434891
 H         3.112384         2.172236         0.680566
