19
Iteration:  1142charge 0 multiplicity 1
 C         0.012144        -0.676533         0.248215
 C         1.276238        -0.081034        -0.048735
 C         2.486451        -0.899416        -0.467336
 C         3.412765         0.254123        -0.796639
 C         4.895873         0.168207        -0.893620
 O         2.591192         0.958099        -2.007155
 C         1.645375         1.297232        -1.020882
 C         2.666370         1.307740         0.116270
 O         1.890411         0.626007         1.038950
 H         0.120165        -1.644652         0.821185
 H        -0.607980        -0.002375         0.937588
 H        -0.491242        -0.766626        -0.700505
 H         2.703700        -1.562924         0.446156
 H         2.332259        -1.440326        -1.409060
 H         5.441215         0.986193        -1.263851
 H         5.235643         0.026352         0.258320
 H         5.246609        -0.784334        -1.244085
 H         0.792439         1.940679        -1.210691
 H         3.120951         2.296646         0.287410
