19
Iteration:  3760
 C         0.026265        -0.658344        -0.024598
 C         1.318527         0.005321        -0.043449
 C         2.530070        -0.916749        -0.423214
 C         3.390123         0.291782        -0.763993
 C         4.837572         0.143306        -1.210389
 O         2.676551         0.877790        -1.850434
 C         1.622953         1.236603        -0.865528
 C         2.641150         1.440944         0.277152
 O         1.816752         0.611247         1.160049
 H        -0.015357        -1.405680         0.822915
 H        -0.788820         0.049108         0.175159
 H        -0.313545        -1.156137        -0.913163
 H         2.621872        -1.471923         0.562214
 H         2.343893        -1.757781        -1.186736
 H         5.704277         0.931324        -1.068434
 H         5.430103        -0.622155        -0.604830
 H         5.046536        -0.264780        -2.261259
 H         0.918988         1.838905        -1.404430
 H         3.100370         2.360763         0.670540
