19
Iteration:  3021
 C        -0.129189        -0.644703         0.225124
 C         1.265972        -0.070308        -0.043884
 C         2.469555        -0.990381        -0.518024
 C         3.371250         0.236424        -0.759688
 C         4.970209         0.220639        -0.965541
 O         2.718486         0.869703        -1.968500
 C         1.659402         1.233722        -0.992679
 C         2.700357         1.363821         0.110655
 O         1.864653         0.724162         1.144364
 H        -0.097821        -1.629850         0.781658
 H        -0.681327         0.058207         0.836803
 H        -0.796485        -0.865411        -0.576540
 H         2.828899        -1.791588         0.161553
 H         2.256813        -1.500165        -1.491666
 H         5.227656         1.071771        -1.579792
 H         5.375031         0.271991         0.120691
 H         5.262862        -0.709220        -1.616456
 H         0.851815         1.843107        -1.359846
 H         3.099143         2.396375         0.328082
