19
Iteration:  1572
 C        -0.016627        -0.612063         0.031364
 C         1.301935        -0.097177        -0.023224
 C         2.554091        -0.889797        -0.302588
 C         3.392117         0.328469        -0.789940
 C         4.896684         0.181774        -1.082803
 O         2.583257         0.859339        -1.960859
 C         1.704136         1.219080        -0.985901
 C         2.614084         1.354977         0.154485
 O         1.842813         0.625170         1.213924
 H        -0.244009        -1.339674         0.898133
 H        -0.660122         0.202135         0.226902
 H        -0.307691        -1.282360        -0.824240
 H         2.945022        -1.372735         0.532296
 H         2.459555        -1.679225        -1.129583
 H         5.220892         1.106253        -1.720001
 H         5.474768         0.056005        -0.210346
 H         5.132994        -0.733553        -1.733079
 H         1.020358         2.018043        -1.376388
 H         3.123320         2.285009         0.365634
