19
Iteration:  3046
 C        -0.067001        -0.517578         0.072926
 C         1.320068        -0.065285        -0.017161
 C         2.549363        -0.931436        -0.382723
 C         3.373169         0.316234        -0.775767
 C         4.905918         0.204896        -1.037448
 O         2.605546         0.779592        -1.948478
 C         1.643686         1.176743        -0.951649
 C         2.711088         1.339766         0.182152
 O         1.872683         0.615501         1.133708
 H        -0.356062        -1.503614         0.462442
 H        -0.670212         0.234892         0.506505
 H        -0.460597        -0.559209        -0.965043
 H         2.866029        -1.527060         0.468405
 H         2.364511        -1.579758        -1.173130
 H         5.058891         1.043663        -1.796985
 H         5.450428         0.476316        -0.088476
 H         5.224959        -0.671517        -1.569812
 H         0.941630         1.913561        -1.298964
 H         3.038256         2.398205         0.501386
