19
Iteration:  2173charge 0 multiplicity 1
 C        -0.090206        -0.579192         0.242723
 C         1.319924        -0.072556        -0.077272
 C         2.571599        -0.963526        -0.583398
 C         3.368496         0.219662        -0.890086
 C         4.796007         0.248316        -0.948529
 O         2.640732         0.989654        -1.941063
 C         1.711173         1.296282        -0.952347
 C         2.596132         1.255404         0.235676
 O         1.922863         0.535061         1.101634
 H        -0.106247        -1.024873         1.267113
 H        -0.801999         0.287569         0.376142
 H        -0.418574        -1.182168        -0.527287
 H         2.970201        -1.597423         0.203576
 H         2.347800        -1.591920        -1.567449
 H         5.305394         1.197607        -0.844856
 H         5.163756        -0.438143        -0.085453
 H         5.264231        -0.235647        -1.886675
 H         1.093501         2.167266        -1.375007
 H         3.229034         2.003088         0.635055
