19
Iteration:  4109
 C        -0.099055        -0.572577         0.086728
 C         1.377907        -0.043128        -0.024905
 C         2.595738        -0.988129        -0.399982
 C         3.428036         0.192527        -0.843314
 C         4.868544         0.308337        -1.096827
 O         2.583119         0.833218        -1.858970
 C         1.684059         1.207729        -0.938271
 C         2.713737         1.284243         0.230234
 O         1.738435         0.674095         1.077933
 H        -0.063356        -1.409149         0.890429
 H        -0.899986         0.069033         0.414374
 H        -0.376536        -0.849154        -0.946104
 H         2.990208        -1.300277         0.530360
 H         2.347855        -1.670972        -1.214652
 H         5.382103         1.314674        -1.259719
 H         5.518891        -0.025149        -0.267552
 H         5.243935        -0.268938        -1.955507
 H         0.941963         1.966425        -1.389031
 H         3.278767         2.218451         0.621839
