19
Iteration:  4810
 C         0.027599        -0.720380         0.177344
 C         1.286476        -0.054295        -0.116947
 C         2.475585        -0.916016        -0.533303
 C         3.368490         0.298314        -0.761549
 C         4.895188         0.107249        -0.976297
 O         2.653971         0.961588        -1.962685
 C         1.648398         1.319784        -0.962991
 C         2.673744         1.359183         0.194914
 O         1.815788         0.628064         1.128662
 H         0.136176        -1.097638         1.196453
 H        -0.845648         0.046955         0.171491
 H         0.007352        -1.591034        -0.519210
 H         2.848486        -1.358933         0.415622
 H         2.479481        -1.705795        -1.321931
 H         5.542293         0.904032        -0.530700
 H         5.012948        -0.796984        -0.433908
 H         4.963077        -0.006999        -2.017095
 H         0.808978         2.103629        -1.315891
 H         3.363782         2.183110         0.531200
