19
Iteration:  4753charge 0 multiplicity 1
 C        -0.013905        -0.588631         0.101356
 C         1.326952        -0.086785        -0.089569
 C         2.514001        -0.898998        -0.467287
 C         3.438933         0.246126        -0.784554
 C         4.847908         0.178647        -1.072824
 O         2.608464         0.878992        -1.936563
 C         1.680895         1.221620        -0.873278
 C         2.694951         1.342210         0.287298
 O         1.792559         0.622217         1.072457
 H         0.037099        -1.174969         1.088970
 H        -0.766069         0.227895         0.220391
 H        -0.226239        -1.073201        -0.833749
 H         2.985847        -1.527988         0.347476
 H         2.476926        -1.453763        -1.420190
 H         5.221907         1.198671        -1.111562
 H         5.327299        -0.261187        -0.177977
 H         5.193413        -0.453872        -1.870557
 H         0.810536         1.913361        -1.105781
 H         2.985807         2.446778         0.563600
