19
Iteration:  3486
 C        -0.140808        -0.609481         0.203841
 C         1.272269        -0.115237        -0.045096
 C         2.425754        -1.037443        -0.683684
 C         3.384790         0.312723        -0.866338
 C         4.858183         0.283827        -0.876992
 O         2.680642         0.913583        -1.923653
 C         1.647430         1.299268        -0.979377
 C         2.689411         1.357673         0.198303
 O         2.007159         0.541147         1.149241
 H        -0.042630        -1.408857         0.979593
 H        -0.767473         0.267373         0.650629
 H        -0.682596        -1.041678        -0.645429
 H         2.929112        -1.693385         0.077829
 H         2.254252        -1.495403        -1.660830
 H         5.366001         1.083882        -1.383496
 H         5.102927         0.255596         0.187754
 H         5.375881        -0.590784        -1.243619
 H         0.943716         2.033772        -1.452304
 H         3.218073         2.249765         0.559927
