19
Iteration:  4914charge 0 multiplicity 1
 C        -0.093291        -0.676631         0.040766
 C         1.312158        -0.086798        -0.029929
 C         2.450109        -0.927845        -0.489507
 C         3.400189         0.310011        -0.819756
 C         4.911828         0.193169        -1.007484
 O         2.659839         0.908724        -1.899519
 C         1.685794         1.267001        -0.861745
 C         2.714274         1.396478         0.155265
 O         1.899818         0.591159         1.154241
 H        -0.180069        -1.762338         0.441921
 H        -0.848760        -0.015651         0.477058
 H        -0.560087        -0.798766        -0.939792
 H         2.626601        -1.624511         0.367146
 H         2.242799        -1.597313        -1.322978
 H         5.058730         0.920718        -1.819125
 H         5.442437         0.510246        -0.063074
 H         5.199288        -0.848643        -1.334113
 H         0.835556         1.918132        -1.161494
 H         3.006944         2.431681         0.521731
