19
Iteration:  2380charge 0 multiplicity 1
 C        -0.079687        -0.681841         0.023154
 C         1.290728        -0.016141         0.022410
 C         2.506098        -0.834953        -0.419788
 C         3.424010         0.329056        -0.781917
 C         4.841383         0.057063        -1.195251
 O         2.671914         0.955270        -1.911074
 C         1.731664         1.238847        -0.897700
 C         2.685692         1.307138         0.240315
 O         1.799810         0.628487         1.157105
 H        -0.273078        -1.301328         1.047161
 H        -1.066952        -0.101434        -0.001010
 H        -0.025020        -1.473985        -0.717769
 H         3.084324        -1.333063         0.414981
 H         2.523068        -1.496083        -1.293119
 H         5.325143         0.956823        -1.496121
 H         5.420034        -0.243258        -0.269844
 H         4.855046        -0.645609        -2.041328
 H         1.178049         2.136678        -1.124063
 H         2.974282         2.211636         0.743270
