19
Iteration:  2697charge 0 multiplicity 1
 C        -0.060279        -0.690501         0.238888
 C         1.255333        -0.068734        -0.102338
 C         2.472282        -0.838384        -0.383534
 C         3.426488         0.238371        -0.788746
 C         4.890736         0.101770        -1.054477
 O         2.663406         0.902602        -1.971890
 C         1.680906         1.258997        -1.023393
 C         2.687811         1.336272         0.240183
 O         1.802193         0.692603         1.048013
 H         0.041198        -1.546770         0.949173
 H        -0.676434         0.076344         0.597702
 H        -0.477353        -0.939902        -0.705526
 H         2.947978        -1.479276         0.487591
 H         2.539516        -1.597263        -1.162443
 H         5.193053         1.109495        -1.514243
 H         5.417173         0.022887        -0.019108
 H         5.198785        -0.765447        -1.591956
 H         1.117989         2.126350        -1.281039
 H         3.345616         2.253638         0.586098
