19
Iteration:  2666charge 0 multiplicity 1
 C        -0.004223        -0.685077         0.321403
 C         1.276422        -0.049731        -0.116230
 C         2.461809        -0.891570        -0.586650
 C         3.403483         0.312847        -0.811268
 C         4.854831         0.049038        -0.853701
 O         2.698447         0.882967        -1.979422
 C         1.575126         1.218243        -1.011024
 C         2.628390         1.408781         0.137014
 O         1.897681         0.710427         1.087327
 H         0.145250        -1.714491         0.721333
 H        -0.407067        -0.051117         1.060013
 H        -0.606197        -0.660114        -0.586993
 H         2.897976        -1.589810         0.219221
 H         2.390142        -1.309708        -1.570839
 H         5.531853         0.894990        -1.277233
 H         5.123304        -0.166238         0.236634
 H         5.242831        -0.791181        -1.477396
 H         0.939011         2.021395        -1.388834
 H         3.194563         2.360280         0.466344
