19
Iteration:  3552charge 0 multiplicity 1
 C        -0.090277        -0.693790         0.045335
 C         1.312385        -0.068186        -0.002615
 C         2.442700        -0.867215        -0.460956
 C         3.386218         0.377624        -0.713903
 C         4.925829         0.127052        -1.151580
 O         2.708825         0.933614        -1.885663
 C         1.702777         1.187796        -0.969494
 C         2.666815         1.378966         0.185245
 O         1.835316         0.591972         1.218175
 H        -0.116039        -1.510071         0.795228
 H        -0.811972         0.157060         0.229112
 H        -0.449914        -1.026456        -0.902019
 H         2.813371        -1.556175         0.371931
 H         2.207774        -1.401764        -1.359893
 H         5.405546         1.057994        -1.225312
 H         5.472924        -0.566034        -0.592384
 H         4.885958        -0.090297        -2.201280
 H         0.904462         1.876828        -1.229655
 H         3.170077         2.179360         0.709016
