19
Iteration:  1811charge 0 multiplicity 1
 C        -0.009847        -0.634021         0.351680
 C         1.301415        -0.065369        -0.039265
 C         2.451761        -0.922763        -0.561212
 C         3.404267         0.285459        -0.811752
 C         4.911930         0.238851        -0.830749
 O         2.613347         0.928590        -2.047829
 C         1.674559         1.268620        -1.043666
 C         2.733423         1.271863         0.116705
 O         1.793092         0.590461         1.077768
 H         0.129502        -1.489429         1.017084
 H        -0.635270         0.215542         0.588871
 H        -0.453518        -1.199513        -0.503279
 H         2.893478        -1.496831         0.195447
 H         2.353243        -1.563257        -1.584023
 H         5.426855         1.223719        -0.764162
 H         5.203522        -0.387359        -0.054381
 H         5.048544        -0.267579        -1.795291
 H         0.998267         2.111039        -1.300447
 H         3.260791         2.073157         0.622206
