19
Iteration:  4807charge 0 multiplicity 1
 C         0.013477        -0.735885         0.160295
 C         1.298029        -0.060426        -0.116114
 C         2.468786        -0.917357        -0.500844
 C         3.388268         0.299956        -0.778235
 C         4.885757         0.110037        -0.974162
 O         2.669255         0.972275        -1.966560
 C         1.639832         1.319618        -0.962678
 C         2.658123         1.392856         0.167370
 O         1.814964         0.603075         1.142076
 H         0.191657        -0.999918         1.244344
 H        -0.824985        -0.043924         0.209845
 H        -0.021157        -1.578598        -0.488841
 H         2.739389        -1.442926         0.474055
 H         2.394645        -1.654355        -1.312258
 H         5.534864         0.891479        -0.548073
 H         5.037290        -0.855585        -0.433110
 H         4.963695        -0.025034        -2.064095
 H         0.940774         2.186384        -1.228176
 H         3.407759         2.251571         0.475244
