19
Iteration:  2110
 C        -0.039446        -0.654306         0.131626
 C         1.298364        -0.101418        -0.041221
 C         2.547011        -0.981427        -0.526433
 C         3.320069         0.292505        -0.833917
 C         4.771388         0.196810        -0.972485
 O         2.654192         0.978433        -1.972591
 C         1.697356         1.310665        -0.890223
 C         2.714461         1.298954         0.216977
 O         1.913135         0.620578         1.095001
 H        -0.042470        -1.638373         0.678787
 H        -0.605554         0.106729         0.721121
 H        -0.612289        -0.718741        -0.809087
 H         2.937331        -1.699595         0.220605
 H         2.248391        -1.506826        -1.334485
 H         5.213111         1.031449        -1.516425
 H         5.134388        -0.107655         0.049218
 H         5.033186        -0.702054        -1.547938
 H         0.926071         2.056380        -0.971839
 H         3.325768         2.092456         0.625097
