19
Iteration:  1580
 C        -0.106579        -0.687210         0.079619
 C         1.280221        -0.060466        -0.056646
 C         2.556839        -0.902370        -0.310070
 C         3.436123         0.258826        -0.841752
 C         4.884903         0.182225        -1.101827
 O         2.671518         0.883112        -1.981663
 C         1.617105         1.232983        -0.971019
 C         2.633374         1.391900         0.179805
 O         1.861918         0.652642         1.212387
 H         0.100307        -1.310884         0.924440
 H        -0.838885         0.109799         0.248981
 H        -0.404616        -1.260834        -0.852955
 H         2.915430        -1.357706         0.558879
 H         2.398581        -1.694197        -1.096924
 H         5.352328         1.127510        -1.480264
 H         5.362085         0.054646        -0.060606
 H         5.146046        -0.659756        -1.714695
 H         0.906450         1.959506        -1.265635
 H         3.244196         2.305059         0.400163
