19
Iteration:  1118
 C        -0.100539        -0.714242         0.220715
 C         1.245650        -0.103103        -0.059168
 C         2.498075        -0.917064        -0.539446
 C         3.373435         0.299642        -0.909582
 C         4.815696         0.208222        -0.911457
 O         2.701908         0.876922        -1.962703
 C         1.670572         1.256349        -1.019578
 C         2.746131         1.367528         0.147066
 O         1.923647         0.675000         1.148069
 H         0.094873        -1.416101         1.132848
 H        -0.692404         0.011659         0.784469
 H        -0.703850        -1.156180        -0.570946
 H         2.690917        -1.539787         0.476012
 H         2.259529        -1.513386        -1.410571
 H         5.169034         1.196221        -0.974515
 H         5.198474        -0.148870         0.104439
 H         5.313941        -0.466672        -1.608851
 H         0.814485         1.952429        -1.366890
 H         3.205803         2.318279         0.405947
