19
Iteration:  2260charge 0 multiplicity 1
 C        -0.152702        -0.676331        -0.007350
 C         1.257510        -0.059746         0.004179
 C         2.554019        -0.969318        -0.442672
 C         3.448113         0.263200        -0.772426
 C         4.940911         0.129497        -1.191233
 O         2.632995         0.952557        -1.900729
 C         1.629344         1.288532        -0.867655
 C         2.700949         1.418581         0.218573
 O         1.881324         0.624105         1.194664
 H        -0.222366        -1.694333         0.443615
 H        -0.768543         0.002630         0.614231
 H        -0.642360        -0.843694        -0.900096
 H         2.811439        -1.434525         0.530991
 H         2.612218        -1.784749        -1.289722
 H         5.321289         1.025251        -1.535436
 H         5.517648        -0.119031        -0.295907
 H         4.860885        -0.668713        -1.919713
 H         0.896508         2.092708        -1.120889
 H         3.191149         2.304115         0.568215
