19
Iteration:  3014
 C        -0.101839        -0.679125         0.294283
 C         1.268189        -0.065941        -0.074997
 C         2.466766        -0.981237        -0.536258
 C         3.393315         0.297337        -0.842415
 C         4.899397         0.167558        -0.933560
 O         2.725085         0.842243        -1.929840
 C         1.664775         1.253496        -0.969493
 C         2.685569         1.358112         0.099575
 O         1.830244         0.704495         1.098643
 H         0.039380        -1.589895         0.890159
 H        -0.570890         0.093128         0.871975
 H        -0.607031        -0.805784        -0.694468
 H         2.769578        -1.688245         0.231386
 H         2.175802        -1.449152        -1.428636
 H         5.329215         1.128665        -1.367025
 H         5.466890         0.228394        -0.009678
 H         5.371326        -0.567841        -1.487742
 H         1.096604         2.102652        -1.358878
 H         3.071112         2.429595         0.293862
