19
Iteration:  2376
 C        -0.067917        -0.684691         0.071290
 C         1.278713        -0.024405        -0.012252
 C         2.510612        -0.874912        -0.452092
 C         3.402791         0.313432        -0.789567
 C         4.838993         0.072184        -1.166417
 O         2.663743         0.956987        -1.886427
 C         1.741131         1.258158        -0.908372
 C         2.700208         1.339333         0.253148
 O         1.791888         0.627052         1.157311
 H        -0.148604        -1.265411         0.971162
 H        -0.965097         0.008198        -0.098745
 H         0.028335        -1.498902        -0.669257
 H         3.040451        -1.336318         0.310082
 H         2.451233        -1.519854        -1.385062
 H         5.461428         0.965446        -1.423673
 H         5.457859        -0.289790        -0.357490
 H         4.857079        -0.750394        -1.985267
 H         0.984775         2.096588        -1.211133
 H         3.027548         2.297184         0.663261
