19
Iteration:   365charge 0 multiplicity 1
 C        -0.039707        -0.671299        -0.039249
 C         1.295132        -0.086144        -0.031403
 C         2.581099        -0.926901        -0.347242
 C         3.416813         0.336249        -0.785809
 C         4.918855         0.143981        -1.171411
 O         2.630283         0.859718        -1.895082
 C         1.642443         1.254702        -0.944188
 C         2.620203         1.440046         0.265700
 O         1.798235         0.624354         1.224253
 H        -0.148017        -1.305792         0.844062
 H        -0.704364         0.141738         0.018852
 H        -0.138023        -1.252570        -1.035219
 H         2.945760        -1.351531         0.521993
 H         2.505735        -1.605496        -1.291981
 H         5.318690         1.172237        -1.391559
 H         5.465544        -0.305026        -0.369772
 H         5.128637        -0.364479        -2.135630
 H         0.694725         1.736446        -1.323491
 H         3.195555         2.337285         0.639341
