19
Iteration:  3545
 C        -0.090750        -0.652981         0.077808
 C         1.302460        -0.044670         0.067315
 C         2.499998        -0.882822        -0.511944
 C         3.435714         0.268559        -0.771303
 C         4.899947         0.158768        -1.107947
 O         2.720224         0.936676        -1.929696
 C         1.636521         1.215418        -0.939886
 C         2.647202         1.353818         0.226762
 O         1.841719         0.591154         1.167803
 H        -0.254165        -1.483825         0.864289
 H        -0.802140         0.151119         0.336579
 H        -0.387696        -1.002471        -0.960936
 H         3.034605        -1.574999         0.146906
 H         2.275610        -1.461827        -1.444076
 H         5.264723         1.221195        -0.989938
 H         5.462278        -0.551466        -0.322673
 H         4.814288        -0.224331        -2.172956
 H         0.975065         1.993142        -1.282408
 H         3.000010         2.329965         0.622338
