19
Iteration:  2494charge 0 multiplicity 1
 C        -0.092514        -0.646198         0.343169
 C         1.215363        -0.045795        -0.066906
 C         2.470509        -0.913727        -0.622023
 C         3.433185         0.275291        -0.881441
 C         4.887903         0.161479        -0.886089
 O         2.706727         0.880072        -1.992672
 C         1.651389         1.279293        -1.001129
 C         2.696631         1.371681         0.192669
 O         1.878052         0.615351         1.110226
 H         0.121362        -1.548770         1.000478
 H        -0.701429         0.137972         0.830775
 H        -0.530962        -1.041277        -0.638070
 H         2.861035        -1.768763         0.009316
 H         2.314785        -1.225128        -1.718393
 H         5.446783         1.130331        -0.952399
 H         5.157880        -0.176519         0.090154
 H         5.268693        -0.558594        -1.647451
 H         0.735097         1.892684        -1.290956
 H         3.164626         2.283292         0.581051
