19
Iteration:   947charge 0 multiplicity 1
 C        -0.044057        -0.573230         0.224295
 C         1.325638        -0.099842        -0.142431
 C         2.475128        -0.975393        -0.588234
 C         3.423985         0.329314        -0.729876
 C         4.949038         0.262749        -0.889103
 O         2.610867         0.848779        -2.012922
 C         1.614872         1.189604        -0.915064
 C         2.667413         1.387524         0.153864
 O         1.876841         0.599197         1.112394
 H        -0.106752        -1.568803         0.791020
 H        -0.655800         0.269942         0.756280
 H        -0.702028        -0.815484        -0.586083
 H         2.552260        -1.688382         0.287215
 H         2.222008        -1.425272        -1.537434
 H         5.394420         1.115894        -1.327317
 H         5.483006        -0.000455         0.094812
 H         5.218151        -0.577735        -1.553060
 H         0.819739         1.862247        -1.280277
 H         3.371634         2.245250         0.486913
