19
Iteration:  1390charge 0 multiplicity 1
 C        -0.083620        -0.592090         0.006782
 C         1.351002        -0.137200         0.006767
 C         2.496414        -1.001916        -0.311525
 C         3.409434         0.213156        -0.745412
 C         4.878782         0.262339        -1.129022
 O         2.597918         0.870764        -1.937986
 C         1.777184         1.161368        -0.994113
 C         2.598325         1.413949         0.197487
 O         1.904353         0.715224         1.173077
 H        -0.361669        -1.318261         0.841632
 H        -0.847755         0.232905         0.030910
 H        -0.413180        -1.114914        -0.907433
 H         2.726191        -1.616050         0.627102
 H         2.366137        -1.632648        -1.097826
 H         5.106386         1.283279        -1.579603
 H         5.531273         0.201205        -0.187171
 H         5.144281        -0.576684        -1.902825
 H         0.892340         1.834453        -1.365268
 H         3.036720         2.329773         0.502735
