19
Iteration:  4412
 C        -0.037526        -0.561848         0.051842
 C         1.330695        -0.023405        -0.087203
 C         2.531233        -0.969879        -0.403993
 C         3.352839         0.320395        -0.725183
 C         4.834906         0.311184        -1.079952
 O         2.661292         0.759318        -1.909135
 C         1.596001         1.264580        -0.997526
 C         2.705308         1.317479         0.254146
 O         1.901266         0.565312         1.139050
 H        -0.088685        -1.061241         0.998534
 H        -0.740979         0.280442         0.095606
 H        -0.173528        -1.380841        -0.671941
 H         2.763608        -1.458283         0.568045
 H         2.479333        -1.681593        -1.294284
 H         5.116225         1.356746        -1.468890
 H         5.389921        -0.058894        -0.230570
 H         4.868347        -0.381906        -1.932050
 H         0.688375         1.878068        -1.376343
 H         3.280349         2.240817         0.580734
