19
Iteration:  2505
 C        -0.091921        -0.697735         0.242594
 C         1.328708        -0.073971        -0.028759
 C         2.425325        -0.870705        -0.625117
 C         3.364730         0.312770        -0.802534
 C         4.978084         0.082161        -0.890551
 O         2.660964         0.913660        -1.949348
 C         1.646850         1.281820        -0.920715
 C         2.689103         1.401295         0.071144
 O         1.874305         0.632221         1.117683
 H         0.042725        -1.382201         1.158479
 H        -0.850681         0.032305         0.640157
 H        -0.658079        -1.290880        -0.569470
 H         2.760092        -1.679538         0.091954
 H         2.146367        -1.420629        -1.609640
 H         5.305462         1.120863        -1.181524
 H         5.363946        -0.251311         0.031836
 H         5.395064        -0.562495        -1.713680
 H         0.945210         2.042005        -1.418319
 H         3.239257         2.268968         0.412203
