19
Iteration:  4696
 C        -0.017006        -0.506816         0.058865
 C         1.323664        -0.027924        -0.059755
 C         2.498672        -0.971845        -0.500464
 C         3.387359         0.253765        -0.808179
 C         4.940860         0.286587        -1.005149
 O         2.588776         0.822785        -1.854130
 C         1.549207         1.246035        -0.950674
 C         2.742983         1.290517         0.229711
 O         1.847449         0.608035         1.129145
 H         0.046656        -1.632038         0.234526
 H        -0.504176        -0.056913         0.852134
 H        -0.632504        -0.537983        -0.814383
 H         2.888454        -1.599009         0.309837
 H         2.308543        -1.551019        -1.407688
 H         5.294759         0.865727        -1.806079
 H         5.505631         0.557052        -0.082070
 H         5.253114        -0.754418        -1.276305
 H         0.758006         1.645495        -1.455905
 H         3.331854         2.161686         0.568204
