19
Iteration:  4331
 C        -0.020850        -0.754595         0.236283
 C         1.264019        -0.075278        -0.096472
 C         2.552726        -0.916285        -0.386521
 C         3.342833         0.378107        -0.810235
 C         4.833753         0.146791        -0.963152
 O         2.723886         0.938587        -1.947875
 C         1.616542         1.305858        -1.037171
 C         2.682443         1.340188         0.137762
 O         1.823877         0.639310         1.075465
 H         0.254017        -1.676705         0.814485
 H        -0.653306        -0.060842         0.880594
 H        -0.556697        -1.084124        -0.677574
 H         2.820020        -1.465985         0.527579
 H         2.427047        -1.552344        -1.244865
 H         5.521878         0.952237        -0.751714
 H         5.259779        -0.682489        -0.339640
 H         5.133431        -0.219548        -1.962774
 H         0.904902         2.027596        -1.411411
 H         3.207112         2.260342         0.243801
