19
Iteration:  2879
 C        -0.056161        -0.545171         0.057473
 C         1.314524        -0.049299        -0.018228
 C         2.499628        -0.979928        -0.423640
 C         3.433021         0.219004        -0.779280
 C         4.912236         0.229462        -1.069161
 O         2.617570         0.755958        -1.864060
 C         1.642502         1.160083        -0.907928
 C         2.637024         1.450181         0.160394
 O         1.867863         0.713793         1.100256
 H        -0.210220        -1.425159         0.701855
 H        -0.715870         0.257307         0.444328
 H        -0.416131        -0.828851        -0.904135
 H         2.904294        -1.589273         0.342852
 H         2.512261        -1.521643        -1.362901
 H         5.203895         1.134335        -1.581279
 H         5.265433         0.156190         0.008856
 H         5.307566        -0.635237        -1.720833
 H         0.785751         1.708989        -1.224006
 H         3.344231         2.248584         0.375046
