19
Iteration:  1032
 C        -0.049842        -0.648994         0.005275
 C         1.350180        -0.064427        -0.074049
 C         2.508302        -0.924788        -0.399567
 C         3.417072         0.322296        -0.802007
 C         4.883868         0.118058        -1.123860
 O         2.627876         0.869321        -1.903688
 C         1.624858         1.188296        -0.882909
 C         2.668518         1.351237         0.255829
 O         1.836712         0.747130         1.146343
 H         0.127952        -1.371633         0.874499
 H        -0.844550         0.073240         0.249872
 H        -0.211792        -1.341636        -0.803380
 H         2.767861        -1.517044         0.544964
 H         2.383757        -1.636897        -1.158852
 H         5.307495         1.081179        -1.298260
 H         5.458378        -0.352008        -0.157214
 H         4.997944        -0.418581        -2.075415
 H         1.015632         2.040224        -1.210825
 H         3.068912         2.319665         0.499457
