19
Iteration:  1696
 C        -0.086694        -0.603491         0.023527
 C         1.300129        -0.074119        -0.114554
 C         2.538786        -0.985185        -0.407336
 C         3.393346         0.280077        -0.682165
 C         4.866304         0.291161        -1.090844
 O         2.630623         0.730146        -1.905186
 C         1.611430         1.267723        -0.846711
 C         2.710874         1.376897         0.139363
 O         1.891268         0.680817         1.142659
 H        -0.056845        -1.411496         0.778070
 H        -0.862490         0.214553         0.128722
 H        -0.407954        -1.149839        -0.847816
 H         2.803580        -1.706686         0.459944
 H         2.524346        -1.518396        -1.256206
 H         5.201092         1.188835        -1.521356
 H         5.664203         0.116597        -0.276945
 H         4.949208        -0.516249        -1.845645
 H         0.934292         2.118652        -1.120101
 H         3.232191         2.283430         0.541189
