19
Iteration:  2361
 C         0.004609        -0.698664         0.112030
 C         1.366622        -0.066496        -0.141487
 C         2.508873        -0.953844        -0.542157
 C         3.416380         0.286343        -0.791192
 C         4.877754         0.065145        -1.064568
 O         2.662781         0.957270        -1.885927
 C         1.606645         1.333017        -0.886095
 C         2.638772         1.405621         0.246878
 O         1.842822         0.661262         1.152672
 H        -0.164566        -0.918295         1.164778
 H        -0.753621         0.014648         0.145751
 H        -0.402247        -1.465024        -0.561549
 H         2.542623        -1.820752         0.315539
 H         2.248273        -1.473265        -1.423284
 H         5.287989         1.032825        -1.421404
 H         5.271877        -0.377626        -0.113096
 H         4.944580        -0.508655        -1.927886
 H         0.815553         1.919785        -1.223528
 H         3.431089         2.088952         0.666964
