19
Iteration:   778charge 0 multiplicity 1
 C        -0.080894        -0.574238         0.242484
 C         1.255963        -0.148562        -0.112266
 C         2.474202        -1.007498        -0.532816
 C         3.395175         0.345975        -0.835802
 C         4.911624         0.247774        -0.873623
 O         2.675831         0.913907        -2.022576
 C         1.635699         1.207474        -0.946321
 C         2.683460         1.341552         0.191195
 O         1.913377         0.586134         1.120832
 H        -0.165367        -1.589806         0.708073
 H        -0.486670         0.279609         0.754017
 H        -0.667262        -0.630440        -0.799964
 H         2.936289        -1.634566         0.181019
 H         2.217897        -1.521570        -1.555221
 H         5.313559         1.200321        -1.394965
 H         5.171485         0.207346         0.165292
 H         5.284063        -0.655902        -1.435982
 H         0.849103         1.945853        -1.205417
 H         3.162373         2.279845         0.503337
