19
Iteration:  4920
 C        -0.076478        -0.701182         0.054866
 C         1.281306        -0.103931        -0.052422
 C         2.468237        -0.940999        -0.497045
 C         3.376738         0.320591        -0.800598
 C         4.839695         0.194049        -0.997724
 O         2.693821         0.915027        -1.909807
 C         1.664377         1.265584        -0.865387
 C         2.699903         1.405119         0.171248
 O         1.926179         0.604234         1.158744
 H        -0.177043        -1.647892         0.532283
 H        -0.854766        -0.076421         0.523510
 H        -0.375605        -0.804558        -1.032332
 H         2.725855        -1.550530         0.361456
 H         2.208188        -1.530957        -1.401714
 H         5.155371         0.829585        -1.828732
 H         5.462241         0.433181        -0.163347
 H         5.076702        -0.823306        -1.270410
 H         1.090046         2.096351        -1.258136
 H         3.071327         2.331328         0.494686
