19
Iteration:   954
 C        -0.074779        -0.608023         0.259728
 C         1.363127        -0.090421        -0.130362
 C         2.496539        -0.958361        -0.578131
 C         3.404956         0.305663        -0.746552
 C         4.950016         0.259146        -0.850510
 O         2.603437         0.859415        -2.082467
 C         1.652361         1.236661        -0.993218
 C         2.636785         1.355036         0.218342
 O         1.878924         0.600645         1.107584
 H        -0.226868        -1.476166         0.929418
 H        -0.545186         0.128167         0.835036
 H        -0.664216        -0.626881        -0.695108
 H         2.760896        -1.683307         0.217178
 H         2.306962        -1.378136        -1.538447
 H         5.354016         1.112257        -1.388355
 H         5.497209         0.065025         0.155307
 H         4.932355        -0.660073        -1.426396
 H         0.756637         1.881484        -0.989576
 H         3.307282         2.113576         0.428656
