19
Iteration:  1168
 C        -0.062656        -0.639245         0.167860
 C         1.275853        -0.063259        -0.068119
 C         2.578886        -0.900027        -0.573974
 C         3.383868         0.307779        -0.813346
 C         4.874150         0.154398        -0.961259
 O         2.667473         0.813614        -1.984357
 C         1.627594         1.218114        -0.928119
 C         2.615939         1.382939         0.236232
 O         1.884884         0.724175         1.173483
 H         0.055108        -1.599455         0.619696
 H        -0.721468        -0.052307         0.794659
 H        -0.510007        -0.904217        -0.847658
 H         2.921893        -1.456810         0.227874
 H         2.460159        -1.486876        -1.511200
 H         5.475163         0.891480        -1.675699
 H         5.427323         0.086324         0.029424
 H         4.991787        -0.896249        -1.409421
 H         0.730468         1.767473        -1.222777
 H         3.150683         2.357504         0.349640
