19
Iteration:  2397charge 0 multiplicity 1
 C        -0.128308        -0.724235        -0.042271
 C         1.255343        -0.041002        -0.076102
 C         2.567416        -0.878165        -0.305060
 C         3.412813         0.303543        -0.787496
 C         4.854093         0.103176        -1.234927
 O         2.671890         0.917426        -1.915194
 C         1.667528         1.306889        -0.864371
 C         2.732421         1.351614         0.265737
 O         1.838225         0.649731         1.231991
 H        -0.181020        -1.423256         0.708338
 H        -0.772728         0.140028        -0.028784
 H        -0.257314        -1.261812        -0.999418
 H         2.787889        -1.315543         0.676050
 H         2.377528        -1.667083        -1.087634
 H         5.359961         1.041424        -1.621058
 H         5.575098        -0.264832        -0.539459
 H         4.809267        -0.736103        -1.995530
 H         0.789308         1.997175        -1.140535
 H         3.357246         2.193980         0.592443
