19
Iteration:  1050charge 0 multiplicity 1
 C        -0.080710        -0.673076         0.064243
 C         1.301117        -0.060110        -0.010586
 C         2.577928        -0.929235        -0.309660
 C         3.404496         0.227270        -0.703468
 C         4.878283         0.160007        -1.132466
 O         2.650376         0.947434        -1.975892
 C         1.676167         1.279031        -0.961434
 C         2.680400         1.382772         0.121295
 O         1.829814         0.625429         1.192058
 H        -0.513169        -1.176739         0.924110
 H        -0.803123         0.096550        -0.026549
 H        -0.336902        -1.269453        -0.895423
 H         3.017540        -1.302444         0.653143
 H         2.524848        -1.689922        -1.194842
 H         5.367319         1.196450        -1.161145
 H         5.407206        -0.477267        -0.488135
 H         4.768536        -0.352505        -2.129877
 H         0.759769         1.780332        -1.381664
 H         3.218117         2.227393         0.522650
