19
Iteration:  3819charge 0 multiplicity 1
 C        -0.069093        -0.584749         0.172126
 C         1.252593        -0.094797        -0.094839
 C         2.467913        -0.972363        -0.509422
 C         3.423408         0.243012        -0.808943
 C         4.883211         0.253340        -0.890127
 O         2.599529         0.936801        -1.976844
 C         1.645245         1.294926        -1.001243
 C         2.671535         1.305657         0.192400
 O         1.969875         0.536580         1.085308
 H         0.114699        -1.375043         0.920875
 H        -0.540130         0.323205         0.679249
 H        -0.533920        -0.953468        -0.833136
 H         2.778151        -1.457421         0.423801
 H         2.300828        -1.675250        -1.376019
 H         5.076942         1.305102        -1.145916
 H         5.311194        -0.039906         0.202660
 H         5.276386        -0.500173        -1.694058
 H         0.889166         2.134880        -1.171563
 H         3.261485         2.154079         0.620957
