19
Iteration:  4329
 C        -0.016394        -0.749347         0.234464
 C         1.270670        -0.072293        -0.095859
 C         2.536341        -0.904498        -0.380847
 C         3.350529         0.366956        -0.828731
 C         4.851206         0.153500        -0.966144
 O         2.718762         0.944214        -1.951703
 C         1.625868         1.294945        -1.033779
 C         2.694133         1.337155         0.127077
 O         1.809167         0.632254         1.086058
 H         0.252670        -1.710485         0.858453
 H        -0.640123        -0.111252         0.841824
 H        -0.597630        -1.029319        -0.657292
 H         2.788432        -1.435012         0.512395
 H         2.375283        -1.556163        -1.202383
 H         5.512368         0.925839        -0.782846
 H         5.266709        -0.659028        -0.288174
 H         5.178158        -0.213462        -1.941809
 H         0.926085         2.003947        -1.344885
 H         3.083846         2.286317         0.265510
