19
Iteration:  4759
 C         0.002813        -0.631107         0.097003
 C         1.336073        -0.055157        -0.100366
 C         2.563892        -0.967741        -0.477848
 C         3.398440         0.295052        -0.800299
 C         4.876548         0.147142        -1.041611
 O         2.612864         0.877066        -1.941548
 C         1.694138         1.288654        -0.890231
 C         2.677506         1.336686         0.233772
 O         1.756242         0.650739         1.156937
 H         0.051071        -1.022799         1.107767
 H        -0.692934         0.197511         0.241564
 H        -0.326103        -1.280828        -0.751524
 H         2.991574        -1.695207         0.190603
 H         2.393687        -1.376816        -1.484574
 H         5.288500         1.166434        -1.066529
 H         5.332956        -0.396593        -0.195980
 H         4.987303        -0.391537        -2.045088
 H         0.872494         1.931380        -1.129985
 H         2.943512         2.295892         0.534396
