19
Iteration:  1407
 C        -0.131952        -0.641530         0.078352
 C         1.290384        -0.040481        -0.022216
 C         2.534166        -0.952212        -0.400309
 C         3.402899         0.273098        -0.780235
 C         4.861701         0.264420        -1.079593
 O         2.714082         0.751280        -1.956363
 C         1.617918         1.216244        -0.894929
 C         2.721078         1.332083         0.170471
 O         1.817388         0.741315         1.166949
 H        -0.119671        -1.272530         0.959362
 H        -0.759469         0.222729         0.177206
 H        -0.118616        -1.285242        -0.826093
 H         2.930178        -1.556523         0.392952
 H         2.328821        -1.598347        -1.388160
 H         5.165474         1.304613        -1.343659
 H         5.530021        -0.072388        -0.305832
 H         5.135274        -0.306807        -1.937194
 H         0.883949         1.854363        -1.325307
 H         3.306190         2.242524         0.464432
