19
Iteration:  1548charge 0 multiplicity 1
 C        -0.098913        -0.524159        -0.058210
 C         1.304756        -0.065693        -0.058353
 C         2.684993        -0.957071        -0.375566
 C         3.411428         0.288620        -0.771830
 C         4.852613         0.218927        -1.145005
 O         2.608272         0.738196        -1.886203
 C         1.579509         1.127171        -0.857880
 C         2.652259         1.460737         0.233883
 O         1.878809         0.704333         1.179115
 H        -0.248299        -1.265006         0.747124
 H        -0.819800         0.250204         0.226308
 H        -0.349970        -1.222433        -0.931589
 H         2.997453        -1.630016         0.282494
 H         2.503557        -1.534391        -1.351468
 H         5.146287         1.060714        -1.866065
 H         5.357484         0.265125        -0.093526
 H         5.214500        -0.730459        -1.551433
 H         0.763523         1.697134        -1.217996
 H         3.344176         2.281447         0.562326
