19
Iteration:  4544
 C        -0.121784        -0.587274         0.138846
 C         1.305749        -0.052551        -0.131403
 C         2.595838        -0.903431        -0.404063
 C         3.444584         0.300215        -0.768493
 C         4.884587         0.253405        -1.072376
 O         2.603620         0.790118        -1.876597
 C         1.607673         1.238034        -0.992463
 C         2.696060         1.354641         0.237800
 O         1.881994         0.593331         1.079222
 H        -0.196376        -1.298067         1.061294
 H        -0.799667         0.186990         0.349706
 H        -0.568038        -1.084644        -0.729531
 H         2.885267        -1.507948         0.471058
 H         2.600406        -1.611169        -1.275380
 H         5.256086         1.219675        -0.921958
 H         5.416948        -0.481941        -0.448799
 H         4.984949        -0.079343        -2.122316
 H         0.869800         1.892094        -1.339684
 H         3.172268         2.224965         0.708660
