19
Iteration:  3251charge 0 multiplicity 1
 C        -0.074939        -0.644942         0.004073
 C         1.306649        -0.034935        -0.059701
 C         2.583312        -0.906414        -0.432936
 C         3.470671         0.294870        -0.702602
 C         4.984380         0.102660        -1.241183
 O         2.574970         0.825065        -1.890566
 C         1.661108         1.257385        -0.922288
 C         2.568675         1.431949         0.259218
 O         1.811500         0.668325         1.245901
 H        -0.097853        -1.652259         0.678074
 H        -0.780313         0.167120         0.179518
 H        -0.228933        -1.008564        -1.091820
 H         2.882609        -1.556809         0.523544
 H         2.370284        -1.339918        -1.416097
 H         5.152110         0.736759        -2.023262
 H         5.709041         0.265294        -0.378129
 H         5.117384        -0.936442        -1.608715
 H         0.920029         1.993170        -1.073615
 H         3.112564         2.268142         0.770058
