19
Iteration:   653charge 0 multiplicity 1
 C        -0.168974        -0.617473         0.155713
 C         1.279195        -0.109303        -0.084718
 C         2.544345        -0.873173        -0.527720
 C         3.442901         0.420189        -0.831592
 C         4.923257         0.213332        -0.968215
 O         2.657074         0.870726        -1.961647
 C         1.677627         1.195370        -1.003693
 C         2.687222         1.348691         0.187123
 O         1.869760         0.541822         1.198600
 H        -0.152862        -1.432974         0.928016
 H        -0.831287         0.258254         0.654917
 H        -0.684815        -1.078425        -0.628552
 H         2.912961        -1.722333         0.209398
 H         2.295196        -1.279369        -1.462183
 H         5.447031         1.156400        -0.965799
 H         5.263414        -0.328379         0.002367
 H         5.127502        -0.459818        -1.798704
 H         0.855780         1.867528        -1.280823
 H         3.057755         2.320594         0.514138
