19
Iteration:  3037
 C        -0.151833        -0.562305         0.129695
 C         1.314578        -0.080689        -0.019861
 C         2.501427        -0.928815        -0.426213
 C         3.471536         0.274256        -0.727883
 C         4.883463         0.217952        -1.003809
 O         2.611474         0.857872        -1.987329
 C         1.671434         1.104297        -1.008628
 C         2.637462         1.339962         0.179350
 O         1.907625         0.682358         1.138904
 H        -0.119144        -1.522138         0.592930
 H        -0.733213         0.208646         0.711374
 H        -0.386612        -0.549443        -0.972289
 H         2.752244        -1.582180         0.392311
 H         2.261248        -1.466106        -1.342011
 H         5.201519         1.072369        -1.667757
 H         5.604230         0.416327        -0.255898
 H         5.266718        -0.625918        -1.474496
 H         0.865494         1.804782        -1.398695
 H         3.386246         2.056207         0.609909
