19
Iteration:  3666
 C        -0.128145        -0.613810         0.248656
 C         1.260571        -0.115447        -0.103099
 C         2.486025        -0.972342        -0.589934
 C         3.489007         0.227982        -0.886406
 C         4.930777         0.259086        -0.898463
 O         2.663162         0.994958        -1.928251
 C         1.605706         1.281727        -0.967748
 C         2.714439         1.277656         0.159626
 O         1.858071         0.539573         1.098480
 H        -0.147336        -1.337519         1.080620
 H        -0.488301         0.337465         0.615024
 H        -0.929168        -0.766879        -0.537735
 H         2.845147        -1.635971         0.154919
 H         2.379407        -1.720024        -1.401427
 H         5.210775         1.190185        -1.338756
 H         5.232852         0.387856         0.173173
 H         5.536534        -0.476561        -1.374132
 H         0.791400         2.028339        -1.057621
 H         3.272321         2.132140         0.492007
