19
Iteration:  4354
 C         0.005849        -0.753851         0.199549
 C         1.340459        -0.073905        -0.069648
 C         2.523659        -0.875458        -0.519688
 C         3.394042         0.324401        -0.733833
 C         4.837134         0.114921        -0.989904
 O         2.642565         0.857620        -1.930868
 C         1.703523         1.224736        -1.024668
 C         2.634689         1.483892         0.198972
 O         1.830891         0.680943         1.113778
 H         0.047207        -1.483575         1.000017
 H        -0.783986         0.059003         0.489300
 H        -0.429876        -1.230446        -0.714351
 H         2.767752        -1.576186         0.305565
 H         2.323896        -1.406463        -1.462559
 H         5.533170         0.935188        -0.682444
 H         5.351943        -0.747504        -0.582620
 H         5.066612        -0.025819        -2.059792
 H         0.820583         1.846481        -1.310421
 H         2.799816         2.514102         0.452545
