19
Iteration:  3714charge 0 multiplicity 1
 C        -0.008049        -0.683881         0.058487
 C         1.302431        -0.074681        -0.093601
 C         2.478124        -0.922390        -0.479460
 C         3.426315         0.312966        -0.841550
 C         4.871226         0.126374        -1.025042
 O         2.597013         0.934406        -1.876180
 C         1.664944         1.268488        -0.890679
 C         2.677841         1.358822         0.225493
 O         1.855178         0.659968         1.143227
 H         0.053699        -1.489242         0.759605
 H        -0.856760        -0.011158         0.286357
 H        -0.243852        -1.106517        -0.894852
 H         2.900511        -1.610749         0.296700
 H         2.274560        -1.525906        -1.347750
 H         5.525933         1.068348        -1.247754
 H         5.346178        -0.320348        -0.176353
 H         5.146490        -0.534803        -1.907294
 H         0.801780         1.975516        -1.054123
 H         3.202146         2.257224         0.661788
