19
Iteration:   534
 C        -0.095449        -0.749481        -0.010824
 C         1.333086        -0.090683        -0.087267
 C         2.533473        -0.945399        -0.360544
 C         3.459725         0.347603        -0.702313
 C         4.935490         0.140069        -1.191912
 O         2.639604         0.953437        -1.930032
 C         1.627154         1.276027        -0.842864
 C         2.688946         1.324157         0.214545
 O         1.808093         0.690419         1.126575
 H        -0.248047        -1.340240         0.915049
 H        -0.989292         0.026796         0.229353
 H        -0.276457        -1.377764        -0.797427
 H         2.799968        -1.503391         0.669432
 H         2.262564        -1.474582        -1.201421
 H         5.334112         1.120400        -1.036205
 H         5.546920        -0.477455        -0.441663
 H         4.995661        -0.316514        -2.167685
 H         0.887979         2.028711        -1.131020
 H         3.079383         2.224819         0.680430
