19
Iteration:  2420
 C        -0.010967        -0.572945        -0.043463
 C         1.347114        -0.040311         0.023108
 C         2.582005        -0.969642        -0.417083
 C         3.416333         0.253953        -0.784084
 C         4.806945         0.138955        -1.161676
 O         2.606513         0.828568        -1.878572
 C         1.647060         1.222161        -0.859256
 C         2.643225         1.397967         0.260779
 O         1.856947         0.677807         1.145709
 H         0.000076        -1.478940         0.433542
 H        -0.672388         0.239200         0.320888
 H        -0.207833        -0.771281        -1.091187
 H         2.715938        -1.591691         0.404892
 H         2.231858        -1.570950        -1.331206
 H         5.128206         1.174652        -1.364943
 H         5.457618        -0.142489        -0.351353
 H         5.054786        -0.616510        -1.997841
 H         0.874278         2.063288        -1.036114
 H         3.164281         2.264382         0.617524
