19
Iteration:   569charge 0 multiplicity 1
 C        -0.030986        -0.675452         0.029822
 C         1.342975        -0.058910        -0.105557
 C         2.557702        -0.873931        -0.442295
 C         3.416290         0.341541        -0.767093
 C         4.824739         0.118675        -1.060684
 O         2.686753         0.918319        -1.929548
 C         1.573125         1.215630        -0.916789
 C         2.640719         1.349922         0.250387
 O         1.864385         0.625128         1.161029
 H         0.136231        -1.433532         0.785258
 H        -0.651570         0.210712         0.267910
 H        -0.488340        -1.049699        -0.893716
 H         2.842053        -1.611982         0.391472
 H         2.393890        -1.489794        -1.358511
 H         5.233607         1.047193        -1.511037
 H         5.297516        -0.082621        -0.106726
 H         5.121638        -0.614756        -1.805543
 H         0.720903         1.881310        -0.972286
 H         3.025982         2.275274         0.737195
