19
Iteration:  2282charge 0 multiplicity 1
 C        -0.058578        -0.563517         0.153977
 C         1.310732        -0.065338        -0.045458
 C         2.475224        -0.891770        -0.534391
 C         3.391694         0.346588        -0.809020
 C         4.872766         0.196873        -1.031373
 O         2.651002         0.833554        -1.953696
 C         1.653692         1.243638        -0.927898
 C         2.691634         1.281265         0.266233
 O         1.893608         0.587832         1.134080
 H        -0.100869        -1.627482         0.470628
 H        -0.676475         0.101800         0.770798
 H        -0.573323        -0.722184        -0.741456
 H         2.985543        -1.673129         0.077610
 H         2.243528        -1.279763        -1.602531
 H         5.218235         1.168183        -1.174350
 H         5.315465         0.027556        -0.034358
 H         5.100468        -0.525642        -1.807811
 H         0.840731         1.913919        -1.245361
 H         3.232070         2.134113         0.627647
