19
Iteration:    66charge 0 multiplicity 1
 C        -0.059131        -0.685070        -0.040420
 C         1.311391        -0.070538        -0.030665
 C         2.566875        -0.881812        -0.467067
 C         3.420115         0.360545        -0.727354
 C         4.806967         0.179227        -1.075736
 O         2.616110         0.920710        -1.941382
 C         1.699761         1.201921        -0.854437
 C         2.680625         1.343836         0.245903
 O         1.860739         0.586023         1.182283
 H        -0.223637        -1.484226         0.708433
 H        -0.845799         0.088186         0.114165
 H        -0.299904        -1.035117        -1.065304
 H         2.849788        -1.609054         0.337080
 H         2.652877        -1.474523        -1.379857
 H         5.117675        -0.850743        -1.210860
 H         5.001316         0.689108        -2.033835
 H         5.408757         0.662115        -0.303272
 H         0.996234         1.998021        -1.027038
 H         2.937894         2.366071         0.501034
