19
Iteration:  4055charge 0 multiplicity 1
 C         0.006583        -0.665377         0.086220
 C         1.363650        -0.095251         0.014838
 C         2.559183        -0.891621        -0.437309
 C         3.402934         0.306282        -0.845566
 C         4.870920         0.110855        -1.005517
 O         2.635447         0.938178        -1.967196
 C         1.568101         1.291165        -0.928685
 C         2.676633         1.340167         0.207169
 O         1.826872         0.654936         1.153191
 H        -0.438227        -1.525434         0.731268
 H        -0.802394         0.021557         0.099309
 H        -0.217546        -1.267376        -0.839837
 H         2.881112        -1.506087         0.407069
 H         2.363904        -1.460093        -1.387074
 H         5.328659         0.813211        -1.811312
 H         5.459689         0.251910        -0.025163
 H         4.981687        -0.964029        -1.310200
 H         0.691223         1.977199        -1.242501
 H         3.322709         2.256125         0.402849
