19
Iteration:   826
 C        -0.073793        -0.662746         0.138858
 C         1.275366        -0.075937        -0.049226
 C         2.497378        -0.923044        -0.456433
 C         3.476996         0.301935        -0.889442
 C         4.896834         0.186625        -0.997233
 O         2.629776         0.889952        -1.984307
 C         1.709962         1.317104        -0.990534
 C         2.627356         1.343232         0.231252
 O         1.850184         0.617953         1.157422
 H         0.059788        -1.538988         0.843494
 H        -0.773415         0.102742         0.555109
 H        -0.510213        -1.175515        -0.692190
 H         2.806505        -1.551791         0.474671
 H         2.320705        -1.529170        -1.304183
 H         5.320530         1.106509        -1.160126
 H         5.124340        -0.221172         0.088819
 H         5.210595        -0.508597        -1.748724
 H         0.950971         2.060688        -1.270109
 H         3.232666         2.121103         0.680244
