19
Iteration:  4086
 C        -0.135005        -0.655563         0.001221
 C         1.336517        -0.063109        -0.102801
 C         2.555817        -0.898429        -0.352386
 C         3.425810         0.313163        -0.726108
 C         4.848238         0.235763        -1.121650
 O         2.636146         0.785301        -1.997054
 C         1.689431         1.230081        -0.866717
 C         2.658433         1.360995         0.254711
 O         1.870831         0.630881         1.217907
 H        -0.167585        -1.306240         0.885594
 H        -0.856660         0.166137         0.194205
 H        -0.418701        -1.073103        -0.984940
 H         2.710322        -1.480646         0.511671
 H         2.428474        -1.390723        -1.288671
 H         5.209878         1.111132        -1.741855
 H         5.586026         0.231982        -0.379316
 H         5.046984        -0.630078        -1.751913
 H         0.973832         1.911562        -1.366217
 H         3.168749         2.355921         0.450684
