19
Iteration:  2243
 C        -0.011763        -0.651108        -0.024278
 C         1.329698        -0.068004        -0.080556
 C         2.545912        -0.861369        -0.309512
 C         3.379352         0.294958        -0.824517
 C         4.815721         0.080796        -1.231737
 O         2.627091         0.991457        -1.836665
 C         1.688491         1.229487        -0.864497
 C         2.694392         1.287039         0.252431
 O         1.812886         0.647903         1.160257
 H         0.019144        -1.571083         0.566009
 H        -0.824302        -0.078090         0.399260
 H        -0.102723        -0.747612        -1.213639
 H         2.872794        -1.380038         0.672612
 H         2.316301        -1.544437        -1.014971
 H         5.255173         1.070378        -1.742145
 H         5.478576        -0.258924        -0.360785
 H         4.852925        -0.671008        -2.066059
 H         0.877067         1.891480        -1.040778
 H         3.254385         2.158244         0.711975
