19
Iteration:  2623
 C        -0.099439        -0.594506         0.201274
 C         1.265760        -0.061037        -0.114776
 C         2.483386        -0.873144        -0.509918
 C         3.414889         0.298278        -0.902567
 C         4.903618         0.170190        -0.886549
 O         2.607001         0.811484        -1.951035
 C         1.654797         1.233093        -0.950556
 C         2.695936         1.296548         0.153746
 O         1.949278         0.669907         1.110553
 H         0.063810        -1.584019         0.727275
 H        -0.616188         0.084749         0.839724
 H        -0.745548        -0.689798        -0.706024
 H         2.690564        -1.440693         0.439027
 H         2.410965        -1.679680        -1.162941
 H         5.226696         1.263514        -0.998888
 H         5.160566        -0.306831         0.060079
 H         5.445243        -0.336805        -1.699414
 H         0.810872         1.900806        -1.121538
 H         3.170230         2.286929         0.264887
