19
Iteration:  4243
 C        -0.122234        -0.611216         0.071881
 C         1.367820        -0.147373        -0.026242
 C         2.591585        -0.932980        -0.416759
 C         3.377260         0.304307        -0.855628
 C         4.960078         0.253890        -1.084896
 O         2.596024         0.840357        -1.926265
 C         1.691047         1.212332        -0.841425
 C         2.694087         1.345156         0.187155
 O         1.770723         0.670593         1.111543
 H        -0.500259        -1.320988         0.878130
 H        -0.738654         0.292625         0.035074
 H        -0.414949        -1.199369        -0.807173
 H         3.055615        -1.370676         0.486148
 H         2.436812        -1.658090        -1.194383
 H         5.199143         1.008607        -1.766941
 H         5.505902         0.440228        -0.060285
 H         5.132938        -0.776096        -1.467921
 H         0.962231         1.946319        -0.955897
 H         3.118785         2.206258         0.569029
