19
Iteration:  3969charge 0 multiplicity 1
 C        -0.065126        -0.556848         0.169655
 C         1.315972        -0.117787        -0.073681
 C         2.537104        -0.893334        -0.475122
 C         3.395268         0.283913        -0.782916
 C         5.013549         0.229759        -0.950384
 O         2.534060         0.860581        -1.939025
 C         1.623895         1.216928        -0.970107
 C         2.713185         1.326864         0.135032
 O         1.823983         0.585150         1.079712
 H         0.080333        -1.356592         0.965097
 H        -0.654753         0.233274         0.566695
 H        -0.416664        -0.834563        -0.837951
 H         2.709484        -1.584953         0.405170
 H         2.440665        -1.633872        -1.386825
 H         5.484939         1.227390        -0.682340
 H         5.374955        -0.609992        -0.262841
 H         5.220569         0.054126        -2.016930
 H         0.838539         2.025338        -1.040302
 H         3.125036         2.304831         0.494665
