19
Iteration:   515
 C        -0.066877        -0.716337         0.055408
 C         1.286704        -0.011589        -0.066126
 C         2.505717        -0.930665        -0.467386
 C         3.397452         0.266076        -0.800076
 C         4.841019         0.255481        -1.095892
 O         2.683873         0.859244        -1.858722
 C         1.700240         1.270216        -0.964543
 C         2.658340         1.356447         0.203898
 O         1.830690         0.638705         1.208067
 H        -0.004845        -1.339102         0.952667
 H        -0.834069         0.104122         0.127847
 H        -0.082984        -1.405085        -0.835369
 H         2.859096        -1.408814         0.487220
 H         2.448981        -1.602105        -1.402482
 H         5.457654         1.168159        -0.885040
 H         5.356686        -0.562622        -0.537312
 H         4.853198        -0.162108        -2.123879
 H         0.932615         1.975204        -1.259158
 H         3.249594         2.226867         0.598450
