19
Iteration:  4269
 C        -0.092379        -0.571334         0.040846
 C         1.335713        -0.037653        -0.085897
 C         2.537138        -0.924813        -0.342286
 C         3.361198         0.282882        -0.767158
 C         4.898707         0.254378        -1.014002
 O         2.634072         0.870749        -1.976359
 C         1.611929         1.172585        -0.977156
 C         2.645584         1.339951         0.193293
 O         1.976592         0.569633         1.185941
 H        -0.253646        -1.401365         0.624280
 H        -0.948488         0.114540         0.264373
 H        -0.325118        -0.953715        -0.972417
 H         2.906992        -1.364374         0.619150
 H         2.431548        -1.676532        -1.170736
 H         4.818762         1.094253        -1.783798
 H         5.495485         0.487622        -0.201239
 H         5.131302        -0.652211        -1.562659
 H         0.638783         1.679421        -1.338804
 H         3.109232         2.266493         0.690295
