19
Iteration:  2904charge 0 multiplicity 1
 C        -0.135723        -0.542453         0.056350
 C         1.258081        -0.054052        -0.003845
 C         2.525823        -0.953634        -0.274307
 C         3.449590         0.241509        -0.717175
 C         4.878889         0.307689        -1.195390
 O         2.690178         0.780988        -2.012280
 C         1.754759         1.217182        -1.005377
 C         2.659265         1.253897         0.227531
 O         1.792793         0.676283         1.186138
 H        -0.384445        -1.219812         0.972723
 H        -0.795786         0.308074         0.116820
 H        -0.422981        -1.139966        -0.844384
 H         3.006673        -1.352576         0.649439
 H         2.561098        -1.666021        -1.052017
 H         5.147112         1.312711        -1.605129
 H         5.439039        -0.017994        -0.271838
 H         5.003649        -0.380460        -1.965105
 H         0.969970         1.917257        -1.259069
 H         3.401695         2.111254         0.515693
