19
Iteration:  1862
 C        -0.056120        -0.569726         0.041463
 C         1.375152        -0.090116         0.048711
 C         2.595209        -0.909451        -0.366182
 C         3.420010         0.261018        -0.837459
 C         4.823844         0.175864        -1.155621
 O         2.634180         0.874042        -1.970002
 C         1.700094         1.221591        -0.864425
 C         2.646972         1.348783         0.219137
 O         1.785892         0.635057         1.160383
 H        -0.304767        -1.341874         0.780007
 H        -0.781786         0.235559         0.029501
 H        -0.121442        -1.125358        -1.002590
 H         2.994941        -1.611172         0.390085
 H         2.324606        -1.465807        -1.219606
 H         5.330392         1.224830        -1.005146
 H         5.262942        -0.493496        -0.327707
 H         4.901858        -0.225260        -2.145760
 H         0.930242         1.908729        -1.005632
 H         3.023351         2.327030         0.527477
