19
Iteration:  1002charge 0 multiplicity 1
 C        -0.034942        -0.678358         0.115287
 C         1.310833        -0.084440        -0.061758
 C         2.490529        -0.899385        -0.453114
 C         3.404434         0.294300        -0.715690
 C         4.906680         0.121041        -0.967056
 O         2.583107         0.927847        -2.019146
 C         1.677575         1.250014        -1.004356
 C         2.674846         1.331244         0.170496
 O         1.880952         0.673281         1.162924
 H         0.075738        -1.551580         0.797975
 H        -0.865906        -0.184179         0.729009
 H        -0.537495        -1.007959        -0.784306
 H         2.724256        -1.553209         0.389755
 H         2.323467        -1.333813        -1.440306
 H         5.062196         1.097157        -1.355427
 H         5.515509         0.035936        -0.042365
 H         5.133323        -0.699784        -1.625479
 H         1.098210         2.107935        -1.343249
 H         3.228980         2.295757         0.456394
