19
Iteration:  1131charge 0 multiplicity 1
 C        -0.060321        -0.688578         0.276093
 C         1.280112        -0.016631        -0.140053
 C         2.448701        -0.961983        -0.530445
 C         3.362145         0.272859        -0.829687
 C         4.900306         0.168596        -0.841236
 O         2.663083         0.957732        -2.032443
 C         1.612459         1.228287        -0.966858
 C         2.649969         1.351094         0.083614
 O         1.942923         0.658762         1.131497
 H         0.244145        -1.666531         0.758796
 H        -0.758730        -0.029980         0.884636
 H        -0.598481        -1.039570        -0.601535
 H         2.980595        -1.373868         0.407612
 H         2.368078        -1.802004        -1.217886
 H         5.287750         1.064083        -1.256672
 H         5.347063         0.029313         0.275673
 H         5.207448        -0.589469        -1.566277
 H         0.917363         2.006098        -1.285782
 H         3.329024         2.135138         0.479210
