19
Iteration:  3172
 C         0.013420        -0.627353         0.248206
 C         1.307976        -0.081166        -0.036738
 C         2.494574        -0.980292        -0.579900
 C         3.342677         0.284601        -0.792065
 C         4.868735         0.173538        -0.804356
 O         2.622368         0.885792        -1.981225
 C         1.637480         1.275562        -1.023978
 C         2.687486         1.383461         0.073409
 O         1.925620         0.647278         1.114601
 H        -0.063652        -1.431450         1.054836
 H        -0.690627         0.165922         0.647028
 H        -0.478231        -0.980867        -0.663752
 H         2.848529        -1.861671         0.044645
 H         2.150132        -1.251417        -1.634302
 H         5.279268         1.129592        -0.702337
 H         5.287605        -0.537102        -0.077602
 H         5.107160        -0.302240        -1.784299
 H         0.877520         1.940454        -1.418437
 H         3.033094         2.296000         0.472165
