19
Iteration:  1257
 C        -0.144193        -0.652120         0.179105
 C         1.317731        -0.123139         0.003797
 C         2.569804        -0.934158        -0.445350
 C         3.303672         0.306552        -0.780995
 C         4.836784         0.188584        -0.978545
 O         2.708042         0.872096        -1.952644
 C         1.691823         1.254746        -1.058240
 C         2.657973         1.368181         0.097189
 O         1.907936         0.662161         1.178651
 H        -0.165360        -1.070773         1.199847
 H        -0.887554         0.091852         0.124751
 H        -0.433492        -1.339311        -0.657223
 H         3.110366        -1.543391         0.258304
 H         2.381532        -1.469142        -1.315351
 H         5.262054         1.249563        -0.708798
 H         5.339585        -0.568111        -0.427080
 H         5.033243        -0.135097        -2.078754
 H         0.857332         1.882461        -1.515048
 H         3.188944         2.285151         0.392664
