19
Iteration:  4793
 C        -0.059493        -0.789136         0.169828
 C         1.255852         0.002591        -0.081701
 C         2.462620        -0.880126        -0.404576
 C         3.390005         0.349315        -0.818497
 C         4.858016         0.057260        -1.008675
 O         2.730554         0.993444        -1.924780
 C         1.694762         1.292071        -0.955147
 C         2.671020         1.382826         0.139527
 O         1.870521         0.602885         1.102216
 H        -0.075468        -1.266648         1.194441
 H        -0.888193        -0.195410         0.015581
 H        -0.290390        -1.723714        -0.365151
 H         2.755488        -1.657548         0.309515
 H         2.210118        -1.309965        -1.370167
 H         5.349679         0.972767        -0.726674
 H         5.382531        -0.801235        -0.464949
 H         5.218222        -0.018481        -2.122017
 H         0.962195         1.941414        -1.218617
 H         2.832096         2.383364         0.508771
