19
Iteration:  4262charge 0 multiplicity 1
 C        -0.125005        -0.561645         0.014599
 C         1.281843        -0.061360        -0.059219
 C         2.568152        -0.995318        -0.311250
 C         3.445761         0.276171        -0.818942
 C         4.886482         0.253756        -1.072059
 O         2.600489         0.893258        -1.939025
 C         1.592129         1.242346        -1.017920
 C         2.624221         1.331945         0.187968
 O         1.956643         0.580723         1.225120
 H        -0.117372        -1.484628         0.775805
 H        -0.771785         0.274415         0.192471
 H        -0.278966        -1.055530        -0.971723
 H         2.951031        -1.421180         0.586340
 H         2.512110        -1.781961        -1.072578
 H         5.165480         1.115544        -1.730251
 H         5.485449         0.506202        -0.136451
 H         5.342986        -0.694461        -1.419947
 H         0.707793         1.754671        -1.462801
 H         3.147511         2.206401         0.676188
