19
Iteration:  4742
 C        -0.091281        -0.565341         0.096561
 C         1.310611        -0.051241        -0.068843
 C         2.526353        -0.910446        -0.456236
 C         3.401248         0.277567        -0.794884
 C         4.901900         0.230019        -1.065653
 O         2.619772         0.885978        -1.893647
 C         1.669921         1.166779        -0.931861
 C         2.673273         1.362858         0.215539
 O         1.878819         0.569446         1.101341
 H        -0.297950        -1.481441         0.725355
 H        -0.799185         0.252507         0.304127
 H        -0.393404        -1.050910        -0.829747
 H         2.719603        -1.351418         0.557725
 H         2.367854        -1.712347        -1.180513
 H         5.226489         1.200235        -1.433024
 H         5.402101         0.031446        -0.104411
 H         5.202965        -0.481477        -1.826454
 H         0.888494         1.914726        -1.194849
 H         3.345133         2.103139         0.811983
