19
Iteration:   899charge 0 multiplicity 1
 C        -0.038366        -0.659156         0.017019
 C         1.323311        -0.039328        -0.081016
 C         2.490177        -0.977340        -0.324067
 C         3.426514         0.299066        -0.787385
 C         4.905057         0.187701        -1.105254
 O         2.584053         0.902048        -1.889746
 C         1.683463         1.249005        -0.925862
 C         2.731378         1.323602         0.208754
 O         1.795041         0.680592         1.128733
 H        -0.133560        -1.280844         0.951881
 H        -0.805834         0.061351         0.032328
 H        -0.430507        -1.431778        -0.737912
 H         2.895495        -1.444857         0.546145
 H         2.433009        -1.557179        -1.275782
 H         5.516172         1.132579        -1.174186
 H         5.359171        -0.545216        -0.405312
 H         5.082350        -0.250059        -2.113885
 H         0.885570         1.999102        -1.019139
 H         3.213824         2.231129         0.439183
