19
Iteration:  4743
 C        -0.080974        -0.564291         0.103320
 C         1.314384        -0.055921        -0.069653
 C         2.522098        -0.898408        -0.460258
 C         3.405731         0.268412        -0.790038
 C         4.893144         0.223818        -1.068644
 O         2.617615         0.886730        -1.896088
 C         1.673266         1.156655        -0.923744
 C         2.675049         1.366984         0.227095
 O         1.871875         0.572177         1.087539
 H        -0.274662        -1.466261         0.716180
 H        -0.821631         0.280910         0.287484
 H        -0.373354        -1.077083        -0.831758
 H         2.721996        -1.342320         0.549142
 H         2.379036        -1.702270        -1.194346
 H         5.238376         1.220146        -1.415443
 H         5.385847         0.004643        -0.116430
 H         5.227339        -0.465907        -1.814602
 H         0.866685         1.938099        -1.179771
 H         3.329769         2.133500         0.808068
