19
Iteration:  1349
 C        -0.064245        -0.650391         0.119155
 C         1.299359        -0.107525        -0.090249
 C         2.558191        -0.910811        -0.433236
 C         3.446029         0.355286        -0.796553
 C         4.935168         0.136670        -1.007901
 O         2.541054         0.788064        -1.999198
 C         1.684996         1.242340        -0.957952
 C         2.685068         1.404491         0.246135
 O         1.834647         0.699080         1.136943
 H        -0.225066        -1.571414         0.672534
 H        -0.801595         0.118649         0.532162
 H        -0.478658        -0.782044        -0.870210
 H         3.066445        -1.436571         0.431941
 H         2.602453        -1.651064        -1.252870
 H         5.160954         0.927972        -1.637361
 H         5.393675         0.284912         0.058330
 H         5.097026        -0.833385        -1.425838
 H         0.921553         1.968633        -1.168535
 H         3.058287         2.373523         0.590173
