19
Iteration:  4923
 C        -0.076430        -0.704005         0.051192
 C         1.271938        -0.089838        -0.060962
 C         2.476796        -0.943894        -0.500126
 C         3.371840         0.322766        -0.777470
 C         4.800019         0.195382        -1.003440
 O         2.702365         0.921640        -1.917812
 C         1.641791         1.264179        -0.899152
 C         2.679288         1.383092         0.199804
 O         1.938803         0.615017         1.160239
 H        -0.109060        -1.698412         0.650898
 H        -0.800206        -0.066527         0.571420
 H        -0.262623        -0.834033        -1.056202
 H         2.869268        -1.526258         0.351426
 H         2.266847        -1.452600        -1.445007
 H         5.228175         0.749247        -1.792391
 H         5.469136         0.405739        -0.157746
 H         5.045758        -0.873654        -1.263061
 H         1.172419         2.154785        -1.262452
 H         3.221598         2.259981         0.500575
