19
Iteration:  1582charge 0 multiplicity 1
 C        -0.123355        -0.699346         0.095577
 C         1.286249        -0.047134        -0.066214
 C         2.558369        -0.911096        -0.323079
 C         3.430307         0.252409        -0.847558
 C         4.885648         0.181715        -1.090171
 O         2.688366         0.884315        -1.978415
 C         1.609185         1.229217        -0.960626
 C         2.646227         1.396519         0.181355
 O         1.865099         0.667150         1.197568
 H         0.103389        -1.334771         0.961603
 H        -0.883280         0.028571         0.262245
 H        -0.410463        -1.242198        -0.858591
 H         2.882757        -1.307014         0.547964
 H         2.387725        -1.713830        -1.122440
 H         5.370581         1.163229        -1.455990
 H         5.321947         0.044331        -0.102983
 H         5.163691        -0.685127        -1.749401
 H         0.820187         1.944900        -1.243095
 H         3.218945         2.287761         0.472594
