19
Iteration:  4545charge 0 multiplicity 1
 C        -0.127908        -0.586297         0.131008
 C         1.307547        -0.056723        -0.132851
 C         2.602275        -0.896525        -0.402208
 C         3.450406         0.293609        -0.763769
 C         4.874038         0.252520        -1.071640
 O         2.600950         0.783947        -1.879853
 C         1.604540         1.234783        -0.983873
 C         2.699238         1.361862         0.240569
 O         1.880371         0.593794         1.077294
 H        -0.214856        -1.268047         1.059154
 H        -0.774143         0.185240         0.352630
 H        -0.593388        -1.111062        -0.693408
 H         2.866992        -1.521451         0.468693
 H         2.623917        -1.550592        -1.299436
 H         5.257159         1.210576        -0.927285
 H         5.470869        -0.483074        -0.477894
 H         5.013883        -0.048463        -2.128394
 H         0.873380         1.911225        -1.336389
 H         3.196637         2.224603         0.705829
