19
Iteration:  3664
 C        -0.114396        -0.603042         0.246265
 C         1.254860        -0.105558        -0.113953
 C         2.487892        -0.958146        -0.593374
 C         3.484716         0.225012        -0.899645
 C         4.922918         0.259782        -0.901105
 O         2.665861         0.991053        -1.935196
 C         1.607395         1.279018        -0.968777
 C         2.718800         1.272584         0.152247
 O         1.846916         0.531940         1.122750
 H        -0.143925        -1.370418         1.099661
 H        -0.523618         0.338441         0.617274
 H        -0.906010        -0.757221        -0.525174
 H         2.881518        -1.640316         0.178962
 H         2.363036        -1.752959        -1.389132
 H         5.223662         1.168883        -1.276003
 H         5.293589         0.406674         0.154315
 H         5.566630        -0.472666        -1.335692
 H         0.784014         1.950315        -1.020039
 H         3.253594         2.155926         0.515163
