19
Iteration:  1993
 C        -0.004033        -0.547888         0.262440
 C         1.324034        -0.054088        -0.060713
 C         2.376081        -1.005422        -0.590536
 C         3.366494         0.261375        -0.829557
 C         4.885014         0.270114        -0.907889
 O         2.638869         0.968371        -1.911326
 C         1.657409         1.190165        -0.963869
 C         2.687480         1.294754         0.158863
 O         1.925220         0.554866         1.079874
 H        -0.115088        -1.194418         1.079977
 H        -0.692506         0.227232         0.261217
 H        -0.372963        -1.132615        -0.633059
 H         2.856512        -1.802082         0.070754
 H         2.217742        -1.359456        -1.614102
 H         5.267094         1.352168        -0.901059
 H         5.189968        -0.368876        -0.100126
 H         5.295562        -0.136562        -1.771860
 H         0.846318         1.800008        -1.165191
 H         3.316013         2.168388         0.341858
