19
Iteration:  1461charge 0 multiplicity 1
 C        -0.026677        -0.720129         0.328052
 C         1.298003        -0.057634         0.000466
 C         2.557078        -0.876184        -0.540536
 C         3.374445         0.313645        -0.795942
 C         4.812164         0.122552        -0.888316
 O         2.697944         0.979665        -1.945157
 C         1.628616         1.125404        -1.053086
 C         2.608763         1.357922         0.045630
 O         1.896862         0.702589         1.059532
 H         0.122430        -1.479420         1.086880
 H        -0.742551         0.077209         0.587812
 H        -0.433019        -1.041493        -0.714669
 H         3.009597        -1.401804         0.237792
 H         2.121285        -1.566652        -1.435590
 H         5.541082         0.894185        -0.528720
 H         5.016485        -0.645352        -0.060178
 H         5.146741        -0.342530        -1.787020
 H         0.985400         1.849583        -1.463214
 H         3.031292         2.395113         0.177184
