19
Iteration:  2835charge 0 multiplicity 1
 C        -0.036549        -0.718641         0.289421
 C         1.298686        -0.056300        -0.101838
 C         2.535672        -0.946103        -0.442242
 C         3.388967         0.316297        -0.879461
 C         4.843850         0.081496        -0.865836
 O         2.657639         0.949348        -1.958276
 C         1.594398         1.292957        -1.046267
 C         2.682871         1.340969         0.080064
 O         1.908608         0.732140         1.053530
 H         0.188216        -1.727194         0.729737
 H        -0.671162        -0.091660         0.990135
 H        -0.596061        -0.990098        -0.594848
 H         2.775867        -1.381505         0.481285
 H         2.257309        -1.592571        -1.291878
 H         5.532709         0.854165        -1.183900
 H         4.820355        -0.168704         0.241033
 H         5.333749        -0.920373        -1.308213
 H         0.803810         1.971756        -1.367770
 H         3.145881         2.259768         0.452096
