19
Iteration:  1464charge 0 multiplicity 1
 C        -0.020655        -0.698517         0.313645
 C         1.297215        -0.038217         0.027100
 C         2.561632        -0.863705        -0.542114
 C         3.370380         0.321494        -0.772716
 C         4.858665         0.113495        -0.883449
 O         2.667134         0.973037        -1.949289
 C         1.640045         1.119210        -1.046512
 C         2.632238         1.361780         0.052419
 O         1.878142         0.682877         1.034576
 H         0.144965        -1.503627         1.080536
 H        -0.802018        -0.058636         0.616026
 H        -0.528611        -1.042616        -0.621326
 H         3.034635        -1.574331         0.223714
 H         2.070373        -1.445457        -1.443536
 H         5.570375         0.921812        -0.517415
 H         4.980481        -0.524799        -0.133830
 H         5.167251        -0.415612        -1.820059
 H         0.947966         1.837421        -1.592744
 H         2.961295         2.367382         0.149759
