19
Iteration:  2168
 C        -0.082554        -0.567835         0.285279
 C         1.285010        -0.076495        -0.106394
 C         2.563135        -0.982194        -0.647740
 C         3.356682         0.242601        -0.861625
 C         4.849397         0.246225        -0.944510
 O         2.613041         0.965561        -1.921936
 C         1.711173         1.302528        -0.982757
 C         2.667423         1.270535         0.230442
 O         1.902185         0.512828         1.081174
 H        -0.087294        -1.021242         1.267712
 H        -0.627529         0.364343         0.435736
 H        -0.623777        -1.234904        -0.502964
 H         2.958378        -1.524619         0.238390
 H         2.343444        -1.615135        -1.536067
 H         5.277139         1.230380        -0.606543
 H         5.123219        -0.222315        -0.034241
 H         5.264130        -0.226536        -1.792613
 H         1.011682         2.078132        -1.304817
 H         3.256252         2.123511         0.696045
