19
Iteration:  4791charge 0 multiplicity 1
 C        -0.071446        -0.796172         0.183144
 C         1.242155        -0.001267        -0.070001
 C         2.455448        -0.868563        -0.419648
 C         3.384739         0.346492        -0.807644
 C         4.876431         0.052893        -1.024258
 O         2.734803         0.990415        -1.918990
 C         1.698643         1.285609        -0.959291
 C         2.683545         1.372689         0.166040
 O         1.880289         0.622488         1.090629
 H        -0.140174        -1.274653         1.155576
 H        -0.932683        -0.117935        -0.007368
 H        -0.228354        -1.752308        -0.429833
 H         2.825779        -1.607452         0.263816
 H         2.259577        -1.329113        -1.408729
 H         5.337087         1.006252        -0.718461
 H         5.337350        -0.758912        -0.430612
 H         5.174419        -0.018309        -2.118691
 H         0.855137         1.869888        -1.300998
 H         2.784523         2.319510         0.519370
