19
Iteration:  4864charge 0 multiplicity 1
 C        -0.109443        -0.530039         0.080440
 C         1.295117        -0.089418        -0.085172
 C         2.521041        -0.940931        -0.394930
 C         3.383890         0.255139        -0.758253
 C         4.866007         0.277809        -1.044520
 O         2.682132         0.905777        -1.890237
 C         1.626172         1.144835        -0.968260
 C         2.679048         1.351620         0.201751
 O         1.934416         0.550901         1.110076
 H        -0.098896        -1.517561         0.472337
 H        -0.706400         0.291801         0.604960
 H        -0.691220        -0.702928        -0.863241
 H         2.810236        -1.675721         0.379920
 H         2.293827        -1.545033        -1.309895
 H         5.069050         1.394336        -1.171492
 H         5.347598        -0.100915        -0.160284
 H         5.110443        -0.288378        -1.931348
 H         0.872339         1.872528        -1.510077
 H         3.334167         2.167133         0.692378
