19
Iteration:  2741charge 0 multiplicity 1
 C        -0.136092        -0.578347        -0.053066
 C         1.362193        -0.032680         0.029836
 C         2.571278        -0.898853        -0.377493
 C         3.474142         0.296028        -0.756547
 C         4.871740         0.218039        -1.112788
 O         2.537539         0.698812        -1.918977
 C         1.637430         1.205813        -0.897677
 C         2.682798         1.354322         0.168478
 O         1.908140         0.703920         1.178665
 H        -0.600794        -0.945429         0.912167
 H        -0.541496         0.325778        -0.362018
 H        -0.161015        -1.225035        -0.901559
 H         2.732058        -1.504478         0.653426
 H         2.364853        -1.663865        -1.153616
 H         5.298279         1.240286        -1.408342
 H         5.531985        -0.294400        -0.346659
 H         5.092188        -0.386035        -1.955745
 H         0.780063         1.772383        -1.231636
 H         3.154324         2.296688         0.725907
