19
Iteration:    77charge 0 multiplicity 1
 C        -0.037991        -0.640386         0.024781
 C         1.356174        -0.134600        -0.047686
 C         2.591705        -0.900470        -0.476597
 C         3.362178         0.301968        -0.770491
 C         4.823568         0.184712        -1.000497
 O         2.631046         0.978544        -1.894056
 C         1.617053         1.221585        -0.928274
 C         2.661109         1.312530         0.215373
 O         1.854184         0.636978         1.131966
 H        -0.074190        -1.573796         0.618234
 H        -0.895056         0.022610         0.273326
 H        -0.137893        -1.066732        -1.006102
 H         3.195929        -1.437589         0.299506
 H         2.237053        -1.414663        -1.355903
 H         5.001202        -0.853706        -1.244631
 H         5.047571         0.832198        -1.882793
 H         5.510060         0.452596        -0.209148
 H         0.830354         1.936218        -1.118320
 H         3.376398         1.950477         0.714421
