19
Iteration:  4615
 C        -0.013680        -0.717041         0.159687
 C         1.238225        -0.003237        -0.100325
 C         2.615944        -0.882315        -0.484234
 C         3.416300         0.386557        -0.776403
 C         4.894677         0.126858        -1.015850
 O         2.575399         0.843592        -1.922756
 C         1.650193         1.277902        -0.936383
 C         2.685191         1.322330         0.214077
 O         1.835283         0.655053         1.085952
 H        -0.088507        -1.089595         1.121601
 H        -0.977164        -0.024146         0.158380
 H        -0.164079        -1.405803        -0.709225
 H         2.725657        -1.635793         0.312815
 H         2.574273        -1.441447        -1.431859
 H         5.525491         1.108590        -0.830446
 H         5.051546        -0.627654        -0.205429
 H         4.981975        -0.369116        -2.008290
 H         0.965876         2.133829        -1.359345
 H         3.332518         2.079313         0.702509
