19
Iteration:  2535charge 0 multiplicity 1
 C        -0.044414        -0.665867         0.054651
 C         1.356041        -0.007832        -0.049896
 C         2.552139        -0.896605        -0.425409
 C         3.323147         0.323082        -0.856148
 C         4.778362         0.040737        -1.072444
 O         2.645733         0.908700        -1.969664
 C         1.680903         1.298273        -0.889762
 C         2.726091         1.393306         0.215363
 O         1.846650         0.633433         1.177047
 H         0.011363        -1.181825         1.108732
 H        -0.959377        -0.116210        -0.119290
 H        -0.171001        -1.611978        -0.560954
 H         2.929222        -1.388322         0.549926
 H         2.474020        -1.521317        -1.250287
 H         5.196931         1.074521        -1.280234
 H         5.191709        -0.247181        -0.048928
 H         5.056513        -0.756098        -1.718317
 H         0.898169         1.898693        -1.312839
 H         3.368505         2.196945         0.685016
