19
Iteration:  1977
 C        -0.041812        -0.566491         0.255377
 C         1.363112        -0.115822        -0.091025
 C         2.457965        -1.022694        -0.668977
 C         3.331876         0.246460        -0.893148
 C         4.809534         0.220582        -0.835615
 O         2.695977         0.971395        -2.001899
 C         1.641302         1.287491        -0.940081
 C         2.614333         1.376704         0.145801
 O         1.975382         0.527462         1.160797
 H         0.217377        -1.282682         1.163651
 H        -0.562055         0.442653         0.616331
 H        -0.605046        -1.177029        -0.425884
 H         2.710677        -1.655515         0.256517
 H         2.043760        -1.604083        -1.526450
 H         5.138038         1.217402        -0.919846
 H         5.249721        -0.113189         0.139977
 H         5.366481        -0.393258        -1.664037
 H         0.853663         2.042239        -1.381275
 H         3.077573         2.259038         0.611392
