19
Iteration:  2076
 C        -0.119666        -0.765390        -0.066191
 C         1.336546         0.012087        -0.007427
 C         2.514632        -0.876237        -0.412143
 C         3.435794         0.312156        -0.834464
 C         4.954925         0.042085        -1.242377
 O         2.609632         0.866239        -1.870842
 C         1.629604         1.324938        -0.854332
 C         2.642095         1.445771         0.351521
 O         1.875571         0.665585         1.184275
 H        -0.143170        -1.749224         0.516199
 H        -0.934789        -0.140247         0.432845
 H        -0.326893        -0.913971        -1.089612
 H         2.986058        -1.437226         0.369776
 H         2.281752        -1.430336        -1.250535
 H         5.529671         0.864836        -1.595235
 H         5.584587        -0.256943        -0.333491
 H         4.922102        -0.817779        -1.977758
 H         0.823473         2.055592        -1.121769
 H         3.129113         2.213226         0.916724
