19
Iteration:  3885
 C        -0.084451        -0.693677         0.119564
 C         1.301957        -0.027152        -0.092962
 C         2.572466        -0.911612        -0.453183
 C         3.375125         0.329421        -0.748247
 C         4.769775         0.130911        -1.073524
 O         2.713087         0.946021        -1.900977
 C         1.682244         1.267517        -0.934605
 C         2.690874         1.350236         0.197095
 O         1.839769         0.603508         1.089893
 H         0.004577        -1.474118         0.893915
 H        -0.944252        -0.037548         0.526330
 H        -0.496391        -1.279817        -0.790143
 H         2.924598        -1.348476         0.513435
 H         2.517670        -1.576461        -1.346870
 H         5.233716         0.930927        -1.677980
 H         5.433278        -0.118782        -0.169708
 H         5.008850        -0.793011        -1.665690
 H         1.020629         2.180541        -1.207476
 H         3.099450         2.216645         0.819900
