19
Iteration:  1073charge 0 multiplicity 1
 C        -0.088348        -0.607869         0.106735
 C         1.274991        -0.125056        -0.132389
 C         2.555899        -0.908031        -0.388249
 C         3.405959         0.324238        -0.816273
 C         4.881521         0.208510        -1.133756
 O         2.654085         0.828319        -1.880750
 C         1.711856         1.180350        -0.936843
 C         2.618106         1.369091         0.198409
 O         1.866792         0.687022         1.168711
 H        -0.288521        -1.063822         1.110539
 H        -0.821022         0.143852         0.033039
 H        -0.398384        -1.341357        -0.700289
 H         3.014799        -1.447507         0.526560
 H         2.406154        -1.546052        -1.291917
 H         5.408376         1.148159        -0.912034
 H         5.188744        -0.497064        -0.315121
 H         5.122237        -0.208486        -2.131016
 H         0.876481         1.921140        -1.168938
 H         3.181296         2.186280         0.560995
