19
Iteration:  2735charge 0 multiplicity 1
 C        -0.090966        -0.570059        -0.042530
 C         1.317433        -0.014357         0.020763
 C         2.574032        -0.913148        -0.347752
 C         3.423744         0.275632        -0.718110
 C         4.915653         0.212222        -1.125262
 O         2.534525         0.707693        -1.933660
 C         1.657820         1.150461        -0.897728
 C         2.694609         1.388789         0.196330
 O         1.906624         0.700032         1.176020
 H        -0.597448        -0.990760         0.792695
 H        -0.721277         0.358194        -0.323005
 H        -0.160950        -1.305498        -0.899211
 H         2.718561        -1.529994         0.469679
 H         2.374164        -1.377506        -1.325096
 H         5.245512         1.185274        -1.451232
 H         5.526108        -0.149286        -0.327769
 H         5.060936        -0.446344        -2.082132
 H         0.882691         1.917429        -1.192455
 H         3.050439         2.289567         0.533053
