19
Iteration:  1278charge 0 multiplicity 1
 C         0.016096        -0.638779         0.291277
 C         1.290090        -0.045785        -0.144596
 C         2.495840        -0.923630        -0.487262
 C         3.379844         0.326519        -0.823875
 C         4.954551         0.146513        -0.912190
 O         2.652070         0.905907        -2.007024
 C         1.600447         1.164279        -0.953568
 C         2.642663         1.361863         0.157826
 O         1.832265         0.658636         1.049635
 H         0.159029        -1.202994         1.207992
 H        -0.695385         0.115492         0.464649
 H        -0.444167        -1.180719        -0.569136
 H         2.688011        -1.432495         0.406386
 H         2.390199        -1.634194        -1.252866
 H         5.479312         1.119444        -0.599896
 H         5.155719        -0.601185        -0.210176
 H         5.281528        -0.325891        -1.876214
 H         0.908815         1.966261        -1.241224
 H         3.114225         2.289237         0.536376
