19
Iteration:  2170charge 0 multiplicity 1
 C        -0.085841        -0.576228         0.268932
 C         1.299494        -0.071381        -0.094795
 C         2.573524        -0.972520        -0.618344
 C         3.359127         0.228584        -0.872247
 C         4.826972         0.248449        -0.945403
 O         2.620860         0.976458        -1.926954
 C         1.716869         1.296471        -0.972870
 C         2.633374         1.260274         0.236039
 O         1.912975         0.523125         1.086259
 H        -0.101669        -1.003816         1.267172
 H        -0.695882         0.349113         0.424699
 H        -0.539243        -1.202174        -0.504094
 H         2.960855        -1.533728         0.212388
 H         2.327740        -1.649115        -1.614496
 H         5.290101         1.195822        -0.675923
 H         5.127027        -0.275287        -0.070093
 H         5.268110        -0.239190        -1.837151
 H         1.034636         2.151366        -1.361735
 H         3.247319         2.080970         0.677809
