19
Iteration:   245
 C        -0.004860        -0.666996         0.084258
 C         1.230432        -0.058380        -0.083571
 C         2.553365        -0.904000        -0.441520
 C         3.395451         0.363659        -0.781828
 C         4.900374         0.194879        -1.008179
 O         2.641677         0.849046        -1.921638
 C         1.624761         1.230707        -0.987210
 C         2.646367         1.336693         0.237269
 O         1.876284         0.649589         1.130758
 H         0.154701        -1.507313         0.760536
 H        -0.807316        -0.137302         0.501969
 H        -0.392896        -1.152480        -0.817300
 H         2.835547        -1.324335         0.444153
 H         2.411198        -1.636718        -1.283874
 H         5.451821         1.141293        -1.151457
 H         5.385687        -0.433813        -0.307637
 H         4.974481        -0.289472        -1.978970
 H         0.803961         1.944102        -1.298200
 H         3.087208         2.297046         0.645231
