19
Iteration:  4935
 C        -0.020905        -0.712504         0.074960
 C         1.301806        -0.014975        -0.066775
 C         2.541037        -0.863671        -0.516062
 C         3.328199         0.340055        -0.734239
 C         4.795933         0.097903        -1.003514
 O         2.667525         0.961921        -1.923509
 C         1.650927         1.307740        -1.046635
 C         2.669416         1.282436         0.242108
 O         1.903868         0.624650         1.188149
 H         0.232056        -1.616841         0.780862
 H        -0.818735        -0.028297         0.414344
 H        -0.430224        -1.173167        -0.858344
 H         3.002667        -1.597886         0.191861
 H         2.555785        -1.384364        -1.470201
 H         5.107663         0.770158        -1.799778
 H         5.271653         0.306223        -0.015569
 H         4.925899        -0.992897        -1.253618
 H         0.764983         1.947378        -1.256320
 H         3.391569         1.984818         0.726640
