19
Iteration:  4691charge 0 multiplicity 1
 C         0.020634        -0.504644         0.091486
 C         1.301265        -0.057748        -0.129116
 C         2.508330        -0.945985        -0.478034
 C         3.343649         0.259766        -0.772257
 C         4.984444         0.249053        -1.031133
 O         2.587944         0.822926        -1.900641
 C         1.573930         1.271724        -0.958100
 C         2.719391         1.292987         0.238419
 O         1.844632         0.596860         1.151386
 H         0.150498        -1.538708         0.305650
 H        -0.604308        -0.199135         1.037759
 H        -0.629243        -0.616913        -0.830122
 H         2.820769        -1.608370         0.338894
 H         2.383050        -1.505582        -1.425812
 H         5.481961         0.920266        -1.862880
 H         5.319499         0.538686        -0.022914
 H         5.241045        -0.806722        -1.208366
 H         0.684913         1.944260        -1.437695
 H         3.151382         2.207500         0.649811
