19
Iteration:  4653
 C        -0.098620        -0.741561         0.237594
 C         1.307530        -0.097382        -0.043570
 C         2.492468        -0.966355        -0.486297
 C         3.392902         0.364661        -0.793263
 C         4.854039         0.091205        -1.030483
 O         2.764069         1.048481        -1.906562
 C         1.613578         1.252842        -1.030482
 C         2.617617         1.329156         0.140949
 O         1.858970         0.697882         1.120169
 H         0.114878        -1.785618         0.690228
 H        -0.798471        -0.119823         0.666178
 H        -0.400151        -0.993509        -0.771265
 H         2.882525        -1.665491         0.275309
 H         2.420112        -1.404494        -1.486589
 H         5.406440         0.809628        -1.525485
 H         5.207773         0.099066         0.011639
 H         5.192592        -0.887540        -1.373935
 H         0.874999         1.960143        -1.246730
 H         3.318296         2.102183         0.499081
