19
Iteration:  4210charge 0 multiplicity 1
 C        -0.010804        -0.755623         0.185286
 C         1.304830        -0.069185        -0.113061
 C         2.404902        -0.949047        -0.468435
 C         3.413843         0.319925        -0.783708
 C         4.869662         0.217066        -1.032606
 O         2.716337         0.832906        -1.877077
 C         1.687152         1.333600        -1.009867
 C         2.572418         1.445244         0.178104
 O         1.890021         0.643315         1.135261
 H        -0.009043        -1.367020         1.114433
 H        -0.765613        -0.002298         0.211171
 H        -0.159981        -1.383881        -0.688307
 H         2.687595        -1.565243         0.385886
 H         2.248190        -1.570206        -1.344251
 H         5.280631         1.020929        -1.562354
 H         5.552240        -0.060428        -0.158831
 H         5.005966        -0.658809        -1.717105
 H         0.944433         1.980962        -1.336818
 H         2.954751         2.321603         0.588592
