19
Iteration:  2917charge 0 multiplicity 1
 C        -0.134518        -0.550640         0.082874
 C         1.298683        -0.038382        -0.067557
 C         2.568966        -0.924514        -0.273667
 C         3.388193         0.255306        -0.776752
 C         4.867812         0.235580        -1.161292
 O         2.657307         0.780971        -1.856909
 C         1.689071         1.185540        -0.953032
 C         2.775745         1.381336         0.155556
 O         1.776312         0.628226         1.070932
 H        -0.197305        -1.065444         1.070413
 H        -0.900678         0.244252        -0.019931
 H        -0.242622        -1.306848        -0.771554
 H         2.683440        -1.347160         0.761778
 H         2.453278        -1.737804        -1.023960
 H         5.213149         1.311248        -1.256056
 H         5.631510        -0.153867        -0.508100
 H         5.010837        -0.229551        -2.095217
 H         0.967542         1.943811        -1.386397
 H         3.336355         2.094106         0.821617
