19
Iteration:  1954charge 0 multiplicity 1
 C        -0.116528        -0.635911         0.307779
 C         1.275451        -0.092633        -0.086184
 C         2.486736        -0.849789        -0.600488
 C         3.436433         0.354240        -0.802723
 C         4.924093         0.180311        -0.882829
 O         2.576425         0.946002        -1.954130
 C         1.654161         1.259161        -0.937545
 C         2.806857         1.341800         0.067086
 O         1.843033         0.491531         1.068982
 H         0.005110        -1.564691         1.002990
 H        -0.672021         0.298098         0.774673
 H        -0.590061        -1.002881        -0.634578
 H         2.883869        -1.488937         0.189422
 H         2.333538        -1.425189        -1.598193
 H         5.585520         1.003578        -1.189168
 H         5.265041        -0.021516         0.143317
 H         5.125099        -0.802027        -1.504057
 H         0.751512         1.944099        -1.234556
 H         3.334798         2.208079         0.514278
