19
Iteration:   755
 C        -0.112236        -0.570679         0.126022
 C         1.250672        -0.071425        -0.073877
 C         2.617582        -0.902320        -0.492072
 C         3.391952         0.315824        -0.789228
 C         4.942852         0.163579        -0.987641
 O         2.616469         0.897942        -1.927598
 C         1.603932         1.213384        -0.980073
 C         2.658089         1.337776         0.179881
 O         1.881365         0.558928         1.159513
 H         0.028220        -1.465834         0.740933
 H        -0.688208         0.251171         0.610717
 H        -0.642151        -0.895837        -0.857100
 H         2.983879        -1.386350         0.394928
 H         2.571402        -1.513697        -1.461573
 H         5.339532         1.183105        -1.397202
 H         5.294338        -0.051786        -0.028174
 H         5.251588        -0.638547        -1.712546
 H         0.858376         1.949572        -1.307386
 H         3.144022         2.256368         0.601475
