19
Iteration:  3134charge 0 multiplicity 1
 C        -0.047613        -0.704695         0.330231
 C         1.315645        -0.003605        -0.104681
 C         2.503370        -0.921477        -0.455080
 C         3.464379         0.353977        -0.826132
 C         4.884990         0.079105        -0.937218
 O         2.669704         0.917221        -1.985430
 C         1.634404         1.300248        -1.021990
 C         2.677700         1.348895         0.154688
 O         1.736718         0.598354         1.046905
 H         0.231415        -1.202970         1.225836
 H        -0.764344         0.072262         0.527517
 H        -0.330031        -1.394304        -0.479505
 H         2.893185        -1.523859         0.326824
 H         2.405399        -1.435541        -1.361612
 H         5.659922         1.005356        -0.785053
 H         5.253616        -0.718284        -0.247596
 H         5.040271        -0.203764        -1.976401
 H         1.028824         2.220207        -1.230182
 H         3.220100         2.338686         0.421179
