19
Iteration:  1243
 C        -0.099836        -0.633046         0.155997
 C         1.292480        -0.093033         0.041144
 C         2.483603        -1.006829        -0.401780
 C         3.480798         0.296634        -0.761940
 C         4.885769         0.252204        -1.076436
 O         2.645205         0.820331        -1.944153
 C         1.657131         1.229623        -1.004030
 C         2.632828         1.398993         0.194975
 O         1.891219         0.682520         1.080856
 H        -0.528840        -1.196823         0.942682
 H        -0.743271         0.239134        -0.075832
 H        -0.063394        -1.406381        -0.658991
 H         2.712112        -1.630847         0.391537
 H         2.336621        -1.559414        -1.384931
 H         5.481005         1.169275        -0.964196
 H         5.316943        -0.444319        -0.341494
 H         5.065156        -0.026063        -2.083661
 H         1.028529         2.019817        -1.310380
 H         3.162761         2.289537         0.615475
