19
Iteration:   623charge 0 multiplicity 1
 C        -0.003812        -0.587304         0.200347
 C         1.321479        -0.092781        -0.136741
 C         2.413164        -1.027640        -0.600518
 C         3.388070         0.324738        -0.819542
 C         4.849336         0.310740        -0.840986
 O         2.642186         0.929172        -1.950602
 C         1.691717         1.227129        -0.994907
 C         2.758368         1.279296         0.151882
 O         1.847690         0.571444         1.126280
 H         0.080622        -1.468104         0.824381
 H        -0.538628         0.080664         0.927960
 H        -0.622508        -0.787798        -0.690312
 H         2.712414        -1.620398         0.325826
 H         2.133739        -1.783431        -1.307303
 H         5.205378         1.277660        -1.300140
 H         5.232898         0.216331         0.170965
 H         5.181812        -0.490223        -1.507138
 H         0.891657         1.930871        -1.123735
 H         3.209699         2.257404         0.436029
