19
Iteration:  1948charge 0 multiplicity 1
 C        -0.100847        -0.656506         0.253440
 C         1.316317        -0.076282        -0.066371
 C         2.482477        -0.884539        -0.600422
 C         3.446077         0.344860        -0.802754
 C         4.982013         0.135326        -0.908408
 O         2.559804         0.951033        -1.953039
 C         1.625074         1.264343        -0.879963
 C         2.782009         1.399564         0.067116
 O         1.813782         0.515601         1.076341
 H         0.013206        -1.537961         0.828374
 H        -0.604451         0.154879         0.687134
 H        -0.729605        -1.008918        -0.562226
 H         2.696650        -1.519517         0.368058
 H         2.262655        -1.397872        -1.473623
 H         5.549159         0.948323        -1.423967
 H         5.426388        -0.089914         0.087657
 H         5.204950        -0.712595        -1.455623
 H         0.885739         1.947990        -1.195499
 H         3.260349         2.264657         0.499006
