19
Iteration:  4981
 C        -0.155539        -0.727351         0.204594
 C         1.290042        -0.073341        -0.087384
 C         2.493880        -0.882926        -0.566318
 C         3.442531         0.294439        -0.794754
 C         4.868591         0.119870        -0.994297
 O         2.690733         1.010947        -1.945928
 C         1.664478         1.236132        -0.948128
 C         2.712026         1.364332         0.240937
 O         1.822232         0.613794         1.156374
 H        -0.008191        -1.203932         1.215705
 H        -0.799378         0.141856         0.043366
 H        -0.317827        -1.458651        -0.582339
 H         2.908997        -1.565304         0.216806
 H         2.371958        -1.494832        -1.474874
 H         5.274999         1.174018        -1.271123
 H         5.460567        -0.350033        -0.165168
 H         5.033773        -0.498705        -1.898378
 H         0.958244         1.872170        -1.547330
 H         3.456610         2.253704         0.534558
