19
Iteration:  3490charge 0 multiplicity 1
 C        -0.140882        -0.580377         0.219874
 C         1.269860        -0.074227        -0.053101
 C         2.426797        -1.037051        -0.660047
 C         3.406991         0.322781        -0.878598
 C         4.875673         0.272182        -0.874473
 O         2.666158         0.900665        -1.941158
 C         1.642498         1.310588        -0.990714
 C         2.657921         1.355061         0.186036
 O         2.010020         0.501231         1.148057
 H        -0.098696        -1.424360         1.002053
 H        -0.820791         0.137920         0.681382
 H        -0.579114        -1.054018        -0.672643
 H         2.942401        -1.704443         0.052861
 H         2.372821        -1.512573        -1.650008
 H         5.276116         1.257546        -1.293085
 H         5.110326         0.320632         0.329191
 H         5.395978        -0.684898        -1.283442
 H         0.965902         2.056943        -1.331848
 H         3.295018         2.181182         0.552269
