19
Iteration:  4027
 C        -0.014025        -0.712626         0.213306
 C         1.263887        -0.014284        -0.170721
 C         2.504884        -0.891369        -0.548250
 C         3.408631         0.296165        -0.822894
 C         4.920746         0.128747        -0.932935
 O         2.623327         0.895636        -1.936573
 C         1.618725         1.311441        -0.938073
 C         2.688742         1.371062         0.227145
 O         1.858167         0.636660         1.078954
 H         0.186375        -1.483034         0.901541
 H        -0.831121        -0.117013         0.672512
 H        -0.464762        -1.355262        -0.555188
 H         2.665277        -1.525945         0.362212
 H         2.496911        -1.538238        -1.452643
 H         5.333200         0.922197        -1.478021
 H         5.258824         0.079199         0.109414
 H         5.195417        -0.821261        -1.371530
 H         0.840769         2.047950        -1.230091
 H         3.257765         2.246602         0.516016
