19
Iteration:  4043charge 0 multiplicity 1
 C        -0.042807        -0.721810         0.104710
 C         1.317995        -0.063159        -0.033479
 C         2.559037        -0.876223        -0.488856
 C         3.391243         0.341703        -0.838965
 C         4.867571         0.090870        -0.958642
 O         2.558008         0.941377        -2.005457
 C         1.744517         1.237590        -0.937835
 C         2.698219         1.360155         0.166744
 O         1.783127         0.649451         1.176504
 H         0.172337        -1.319931         1.052597
 H        -0.697566         0.089328         0.361329
 H        -0.263326        -1.161786        -0.867692
 H         3.097261        -1.457146         0.226779
 H         2.302583        -1.526862        -1.319076
 H         5.393571         0.791687        -1.717796
 H         5.279397         0.253589         0.038818
 H         5.120904        -0.946685        -1.286583
 H         0.962889         2.009256        -1.053286
 H         3.080484         2.224687         0.749774
