19
Iteration:  2286charge 0 multiplicity 1
 C        -0.007227        -0.534287         0.154197
 C         1.298543        -0.059421        -0.022173
 C         2.461682        -0.916343        -0.574775
 C         3.370250         0.310791        -0.793613
 C         4.878217         0.208632        -0.996209
 O         2.663568         0.856788        -1.960575
 C         1.591913         1.232730        -0.931073
 C         2.718245         1.278036         0.232989
 O         1.889427         0.578916         1.104851
 H        -0.013650        -1.519154         0.642438
 H        -0.561067         0.049656         0.856575
 H        -0.633079        -0.701291        -0.780501
 H         2.923602        -1.755754         0.129726
 H         2.328797        -1.318594        -1.510112
 H         5.240083         1.318582        -1.157826
 H         5.258745         0.000497         0.062348
 H         5.078696        -0.494410        -1.801677
 H         0.817389         1.911315        -1.190169
 H         3.317090         2.128190         0.695678
