19
Iteration:  4779charge 0 multiplicity 1
 C        -0.098705        -0.765552         0.182859
 C         1.268743        -0.096591        -0.020483
 C         2.475969        -0.861434        -0.565473
 C         3.434045         0.303218        -0.761813
 C         4.891974         0.120397        -1.037290
 O         2.710654         0.955468        -1.910748
 C         1.641876         1.247723        -1.002828
 C         2.660490         1.393351         0.238478
 O         1.854131         0.688510         1.130504
 H        -0.172994        -1.125307         1.182930
 H        -1.031478        -0.114108        -0.003554
 H        -0.046276        -1.499959        -0.681882
 H         2.835642        -1.402099         0.305698
 H         2.373691        -1.524514        -1.449700
 H         5.586191         0.982008        -0.823315
 H         5.208193        -0.730348        -0.434354
 H         4.981167        -0.234222        -2.077326
 H         0.888647         1.994772        -1.438338
 H         3.390341         2.100069         0.595914
