19
Iteration:  2134
 C        -0.105198        -0.578203         0.300677
 C         1.246630        -0.058495        -0.032778
 C         2.418626        -0.936529        -0.693724
 C         3.403071         0.277275        -0.800710
 C         4.956800         0.267258        -0.893630
 O         2.678454         0.948766        -1.955411
 C         1.638831         1.233539        -1.036045
 C         2.660068         1.269192         0.160473
 O         1.972925         0.506050         1.142631
 H        -0.063201        -1.440422         0.972596
 H        -0.679361         0.222982         0.735227
 H        -0.732397        -0.845124        -0.655620
 H         2.758992        -1.798243        -0.006326
 H         2.099421        -1.347165        -1.623596
 H         5.281497         1.323215        -1.171281
 H         5.211180        -0.110184         0.085011
 H         5.449413        -0.376693        -1.564065
 H         0.947411         1.980241        -1.243955
 H         3.027721         2.256384         0.512337
