19
Iteration:  2440
 C        -0.133396        -0.560818         0.067818
 C         1.283083        -0.109704         0.040788
 C         2.463140        -0.906898        -0.490951
 C         3.439103         0.367772        -0.814439
 C         4.917180         0.227491        -1.024560
 O         2.594845         0.817496        -1.970995
 C         1.696233         1.190502        -0.967238
 C         2.750281         1.315387         0.176998
 O         1.882320         0.621417         1.238440
 H        -0.150013        -1.559423         0.448520
 H        -0.732568         0.122579         0.638949
 H        -0.687886        -0.540554        -0.899407
 H         2.973844        -1.516418         0.338946
 H         2.384718        -1.561070        -1.414855
 H         5.332541         1.255967        -1.261848
 H         5.383655        -0.258011        -0.212807
 H         5.053159        -0.523415        -1.831278
 H         0.873492         1.888138        -1.331034
 H         3.290057         2.217450         0.480511
