19
Iteration:  4745charge 0 multiplicity 1
 C        -0.063741        -0.562661         0.113755
 C         1.320366        -0.066658        -0.071336
 C         2.513730        -0.879859        -0.464830
 C         3.416420         0.252234        -0.782278
 C         4.874969         0.214542        -1.072729
 O         2.614243         0.887141        -1.902891
 C         1.675309         1.147639        -0.908786
 C         2.681610         1.373224         0.251681
 O         1.857621         0.579022         1.064466
 H        -0.214794        -1.420967         0.727591
 H        -0.839955         0.303495         0.255145
 H        -0.333870        -1.107992        -0.846421
 H         2.743435        -1.332312         0.512901
 H         2.406230        -1.672183        -1.228776
 H         5.254591         1.249313        -1.371569
 H         5.361912        -0.051365        -0.136400
 H         5.274509        -0.461300        -1.810603
 H         0.851393         1.950395        -1.147501
 H         3.265473         2.175060         0.763573
