19
Iteration:  1018charge 0 multiplicity 1
 C        -0.031531        -0.721838         0.109683
 C         1.279812         0.011079        -0.005110
 C         2.546297        -0.903256        -0.489695
 C         3.410490         0.297316        -0.806422
 C         4.856455         0.162325        -1.058529
 O         2.630587         0.778722        -1.914461
 C         1.698218         1.313718        -0.916769
 C         2.710218         1.426004         0.196315
 O         1.786062         0.674071         1.138879
 H        -0.101509        -1.578346         0.802568
 H        -0.784583         0.006914         0.320974
 H        -0.272104        -1.015254        -0.972764
 H         2.990628        -1.547170         0.315292
 H         2.342596        -1.466537        -1.464498
 H         5.503896         1.039923        -1.411075
 H         5.292621        -0.280089        -0.142542
 H         5.013384        -0.683483        -1.781612
 H         0.807687         1.884956        -1.228495
 H         3.241549         2.209790         0.711615
