19
Iteration:  2476
 C        -0.022691        -0.546925         0.297214
 C         1.321918        -0.106914        -0.113605
 C         2.463203        -0.954959        -0.570400
 C         3.340955         0.294915        -0.802917
 C         4.835575         0.212119        -0.854066
 O         2.667047         0.933064        -1.993919
 C         1.699933         1.250726        -1.018101
 C         2.694386         1.293430         0.115602
 O         1.846153         0.554413         1.092476
 H         0.092624        -1.417891         0.868598
 H        -0.291560         0.112862         1.150634
 H        -0.717964        -0.695081        -0.469384
 H         2.745887        -1.479532         0.274457
 H         2.296500        -1.680213        -1.431408
 H         5.278784         1.174333        -1.031074
 H         5.238895        -0.116421         0.144663
 H         5.230262        -0.318296        -1.779950
 H         0.959259         2.043401        -1.357291
 H         3.297529         2.100459         0.489008
