19
Iteration:  4813
 C         0.030405        -0.702246         0.192318
 C         1.279279        -0.040642        -0.115877
 C         2.490847        -0.913745        -0.556541
 C         3.354756         0.302842        -0.756382
 C         4.890203         0.111441        -0.967540
 O         2.638013         0.950882        -1.952786
 C         1.653666         1.323653        -0.967416
 C         2.687610         1.324849         0.220070
 O         1.820281         0.653811         1.110542
 H         0.062476        -1.211098         1.161769
 H        -0.798475         0.016774         0.113832
 H        -0.046611        -1.568330        -0.529863
 H         2.936293        -1.305629         0.342288
 H         2.529730        -1.692577        -1.323553
 H         5.512221         0.893870        -0.555141
 H         5.075108        -0.822824        -0.417438
 H         5.027165        -0.008966        -2.076031
 H         0.814538         1.897269        -1.335716
 H         3.251968         2.096363         0.599171
