19
Iteration:  2030
 C        -0.099173        -0.629710         0.061968
 C         1.306736        -0.047207        -0.086168
 C         2.545864        -0.938738        -0.378864
 C         3.400631         0.299236        -0.821397
 C         4.894547         0.172961        -1.210649
 O         2.603446         0.919501        -1.877236
 C         1.725722         1.269108        -0.891819
 C         2.661888         1.344955         0.275852
 O         1.840380         0.576404         1.148623
 H        -0.191011        -1.255087         0.982595
 H        -0.883838         0.161448         0.248503
 H        -0.202683        -1.155031        -0.862516
 H         2.788204        -1.400739         0.507035
 H         2.465796        -1.698373        -1.206409
 H         5.492992         1.083210        -1.083515
 H         5.405740        -0.433563        -0.425983
 H         5.029103        -0.338193        -2.257804
 H         0.961403         2.047335        -1.253348
 H         3.139144         2.242643         0.715176
