19
Iteration:  1152charge 0 multiplicity 1
 C        -0.019952        -0.689530         0.212862
 C         1.376604        -0.078627        -0.028810
 C         2.522787        -0.899029        -0.496913
 C         3.391072         0.362378        -0.819308
 C         4.899470         0.100308        -0.894430
 O         2.566294         0.881504        -1.965442
 C         1.670883         1.251459        -0.999579
 C         2.711673         1.419849         0.086752
 O         1.821485         0.630150         1.084040
 H        -0.141478        -1.715381         0.714637
 H        -0.485664         0.103994         0.861462
 H        -0.653514        -0.852744        -0.638877
 H         2.829479        -1.780356         0.234901
 H         2.257671        -1.329733        -1.460288
 H         5.297651         0.893152        -1.411880
 H         5.132291         0.280567         0.188725
 H         5.187196        -0.777039        -1.411023
 H         0.960973         2.038970        -1.340442
 H         3.123761         2.187482         0.721360
