19
Iteration:  1547charge 0 multiplicity 1
 C        -0.103843        -0.528723        -0.063185
 C         1.301803        -0.063641        -0.064203
 C         2.681744        -0.959131        -0.377793
 C         3.401458         0.289195        -0.778833
 C         4.861841         0.219394        -1.151969
 O         2.608854         0.740222        -1.879105
 C         1.590408         1.123562        -0.859599
 C         2.647053         1.457143         0.225660
 O         1.882589         0.708120         1.193582
 H        -0.247197        -1.248479         0.742976
 H        -0.856724         0.231518         0.256738
 H        -0.382206        -1.213650        -0.917204
 H         3.007316        -1.661170         0.307504
 H         2.506301        -1.506168        -1.333530
 H         5.138465         1.047427        -1.847605
 H         5.365452         0.276267        -0.067058
 H         5.241650        -0.701644        -1.549260
 H         0.797337         1.689310        -1.235521
 H         3.342957         2.294550         0.547254
