19
Iteration:  2348charge 0 multiplicity 1
 C        -0.021130        -0.614183         0.194807
 C         1.289277        -0.082515        -0.120169
 C         2.439062        -0.939307        -0.618227
 C         3.380819         0.286792        -0.777401
 C         4.866838         0.123125        -0.958124
 O         2.634615         0.968693        -1.921306
 C         1.658654         1.245323        -0.930834
 C         2.656402         1.341072         0.195365
 O         1.914019         0.622172         1.116822
 H         0.270374        -1.093830         1.174403
 H        -0.738637         0.194936         0.188764
 H        -0.308303        -1.473965        -0.390730
 H         2.833205        -1.711981         0.131998
 H         2.346808        -1.319823        -1.642157
 H         5.360731         1.062152        -0.985312
 H         5.377088        -0.373150        -0.082772
 H         5.188948        -0.504835        -1.750851
 H         0.943349         2.003562        -1.109359
 H         3.049181         2.277590         0.599225
