19
Iteration:   204
 C        -0.011642        -0.627284        -0.001528
 C         1.355853        -0.066270        -0.000148
 C         2.504208        -0.931374        -0.405317
 C         3.414850         0.312133        -0.777735
 C         4.867044         0.231710        -1.150804
 O         2.637738         0.914952        -1.883524
 C         1.681359         1.165832        -0.919906
 C         2.625031         1.280696         0.222720
 O         1.785656         0.690463         1.203958
 H        -0.141427        -1.396340         0.779440
 H        -0.813045         0.015579        -0.001956
 H         0.051284        -1.211473        -1.019554
 H         2.982415        -1.363063         0.448225
 H         2.468506        -1.714994        -1.255970
 H         5.120986         0.943670        -1.988271
 H         5.499249         0.461634        -0.388958
 H         5.031946        -0.905362        -1.399847
 H         0.887959         1.804284        -1.360500
 H         3.235492         2.134554         0.553795
