19
Iteration:   122
 C        -0.040597        -0.707444         0.230081
 C         1.282419        -0.058881        -0.090921
 C         2.514138        -0.907062        -0.614743
 C         3.396900         0.332710        -0.762666
 C         4.867488         0.241462        -0.891237
 O         2.673808         0.899363        -1.932626
 C         1.596404         1.304756        -1.005086
 C         2.728114         1.316190         0.162077
 O         1.843283         0.571270         1.089140
 H         0.014217        -1.579274         0.904587
 H        -0.761888         0.021050         0.771917
 H        -0.641098        -1.048431        -0.544928
 H         2.804454        -1.614535         0.241586
 H         2.519819        -1.333221        -1.551380
 H         5.077045        -0.208255        -1.823432
 H         5.453418         1.250768        -0.706664
 H         5.293379        -0.418137        -0.195784
 H         0.892611         1.872190        -1.572840
 H         3.278432         2.103435         0.727698
