19
Iteration:  4142charge 0 multiplicity 1
 C        -0.123519        -0.656856         0.196342
 C         1.283588        -0.059966        -0.010820
 C         2.522488        -0.893399        -0.490919
 C         3.377384         0.366277        -0.741231
 C         4.893579         0.249441        -0.918463
 O         2.679384         0.826913        -1.951564
 C         1.609679         1.210149        -1.027739
 C         2.627787         1.343409         0.118935
 O         1.969140         0.616362         1.118121
 H        -0.100799        -1.701674         0.694272
 H        -0.757043         0.079015         0.642399
 H        -0.394586        -0.943586        -0.837251
 H         2.826810        -1.574650         0.273391
 H         2.306777        -1.504535        -1.377328
 H         5.467540         1.215911        -0.776141
 H         5.253500        -0.636221        -0.367594
 H         4.985250        -0.067068        -1.967854
 H         0.958761         1.836117        -1.695258
 H         3.131555         2.331787         0.327778
