19
Iteration:  4106
 C        -0.071264        -0.571736         0.082331
 C         1.350317        -0.041071         0.004984
 C         2.588484        -0.977023        -0.415568
 C         3.431263         0.221210        -0.830636
 C         4.888925         0.302251        -1.106273
 O         2.587434         0.805198        -1.851117
 C         1.672827         1.224272        -0.972875
 C         2.725622         1.289623         0.229223
 O         1.731356         0.660871         1.082974
 H        -0.134994        -1.365123         0.800694
 H        -0.945727         0.109487         0.393098
 H        -0.360259        -0.905414        -0.945649
 H         3.048612        -1.274248         0.528547
 H         2.440143        -1.686027        -1.200834
 H         5.326541         1.302631        -1.346658
 H         5.451283         0.034981        -0.290008
 H         5.159774        -0.350853        -1.937381
 H         0.931238         2.007713        -1.249395
 H         3.286061         2.129122         0.735196
