19
Iteration:  2864
 C        -0.038682        -0.594799         0.132015
 C         1.347794        -0.048685        -0.018554
 C         2.546475        -0.900309        -0.437150
 C         3.386210         0.352258        -0.766644
 C         4.891555         0.166524        -0.928955
 O         2.555113         0.786252        -2.001426
 C         1.607649         1.205452        -1.031250
 C         2.682613         1.333713         0.121695
 O         1.919535         0.682643         1.160960
 H        -0.023232        -1.535157         0.599412
 H        -0.708505         0.100406         0.652055
 H        -0.379166        -0.720445        -0.920467
 H         2.749765        -1.615412         0.401001
 H         2.195470        -1.388685        -1.386053
 H         5.493719         0.984206        -1.416255
 H         5.381872         0.028919         0.012860
 H         5.110420        -0.838780        -1.360185
 H         0.796724         1.920643        -1.405273
 H         3.048667         2.227754         0.505580
