19
Iteration:  1010
 C        -0.083894        -0.719147         0.131032
 C         1.335995        -0.013319        -0.026189
 C         2.542604        -0.858775        -0.475759
 C         3.427132         0.271422        -0.742204
 C         4.862371         0.126683        -1.022990
 O         2.583026         0.844820        -1.967616
 C         1.695569         1.289382        -1.006359
 C         2.693097         1.412858         0.198429
 O         1.804362         0.647348         1.167876
 H         0.054940        -1.680043         0.701603
 H        -0.748583         0.059162         0.504590
 H        -0.245443        -1.056205        -0.872152
 H         2.832595        -1.710127         0.210204
 H         2.392412        -1.385237        -1.359944
 H         5.281905         1.037052        -1.411678
 H         5.412601        -0.060806         0.055947
 H         5.103518        -0.614367        -1.775947
 H         0.977564         2.093219        -1.279682
 H         3.402385         2.171570         0.444356
