19
Iteration:  4856charge 0 multiplicity 1
 C        -0.104458        -0.562503         0.110940
 C         1.312661        -0.060438        -0.088539
 C         2.455802        -0.996009        -0.450012
 C         3.444747         0.318931        -0.790736
 C         4.928914         0.251266        -0.986712
 O         2.666492         0.921136        -1.899200
 C         1.598200         1.165046        -1.024295
 C         2.636217         1.286520         0.210214
 O         1.945000         0.597756         1.158319
 H        -0.181696        -1.505069         0.673863
 H        -0.708336         0.222034         0.617052
 H        -0.366473        -0.710823        -0.979849
 H         2.570970        -1.572981         0.452541
 H         2.299860        -1.651259        -1.322379
 H         5.205348         1.288255        -1.153192
 H         5.596068        -0.230493        -0.293776
 H         4.954312        -0.140873        -2.014224
 H         0.833525         1.856908        -1.345480
 H         3.095662         2.140902         0.543353
