19
Iteration:  1019
 C        -0.021546        -0.716288         0.099822
 C         1.274962         0.006927        -0.005240
 C         2.543317        -0.912489        -0.492542
 C         3.404294         0.304749        -0.815338
 C         4.860296         0.166531        -1.068596
 O         2.636097         0.775355        -1.908494
 C         1.696321         1.311207        -0.904510
 C         2.712545         1.422823         0.198488
 O         1.788043         0.681560         1.135191
 H        -0.120548        -1.559105         0.828541
 H        -0.811235        -0.022482         0.314643
 H        -0.286186        -1.014507        -0.952993
 H         2.998919        -1.525773         0.351858
 H         2.342206        -1.449958        -1.437611
 H         5.491113         1.034894        -1.393326
 H         5.313795        -0.326493        -0.113620
 H         4.993192        -0.685197        -1.774580
 H         0.803403         1.872887        -1.233403
 H         3.187820         2.203517         0.730976
