19
Iteration:  1911
 C        -0.028787        -0.733315        -0.052408
 C         1.332928        -0.037063         0.060382
 C         2.502196        -0.897924        -0.389757
 C         3.359343         0.343323        -0.776167
 C         4.769701         0.115480        -1.142436
 O         2.699754         0.897558        -1.893098
 C         1.672903         1.251564        -0.912647
 C         2.760084         1.408177         0.212713
 O         1.830879         0.643205         1.180736
 H        -0.128371        -1.667883         0.598953
 H        -0.781763        -0.037857         0.515819
 H        -0.314262        -0.879209        -1.085464
 H         2.892086        -1.552705         0.431902
 H         2.369550        -1.618944        -1.302336
 H         4.985056         0.960475        -1.736741
 H         5.478840         0.080457        -0.346010
 H         4.665332        -0.796889        -1.817326
 H         0.870752         2.028492        -1.280700
 H         3.398172         2.268325         0.522852
