19
Iteration:  1095
 C        -0.002405        -0.586114         0.195233
 C         1.293654        -0.047045         0.010348
 C         2.517086        -0.986096        -0.538395
 C         3.420415         0.301413        -0.739210
 C         4.958484         0.190799        -0.944652
 O         2.584800         0.845537        -1.979124
 C         1.630679         1.220158        -1.011662
 C         2.666019         1.376772         0.153462
 O         1.822080         0.649395         1.096388
 H        -0.039772        -1.246048         1.136264
 H        -0.807623         0.073131         0.330750
 H        -0.215842        -1.212020        -0.706377
 H         2.818537        -1.716464         0.340989
 H         2.235119        -1.462709        -1.486146
 H         5.301700         1.211013        -1.045772
 H         5.677064        -0.376649        -0.330815
 H         4.992152        -0.209156        -1.972250
 H         0.846801         2.039289        -1.166604
 H         3.214586         2.177258         0.610496
