19
Iteration:  2765charge 0 multiplicity 1
 C        -0.107909        -0.557434         0.062276
 C         1.301855        -0.032768        -0.051582
 C         2.627907        -0.960845        -0.248202
 C         3.377851         0.227816        -0.809613
 C         4.822280         0.190406        -1.063073
 O         2.595720         0.883999        -2.010491
 C         1.691705         1.154226        -0.935633
 C         2.677663         1.320169         0.154544
 O         1.874424         0.670708         1.137061
 H        -0.286623        -0.944223         1.032493
 H        -0.718918         0.267656        -0.152574
 H        -0.222278        -1.324598        -0.725298
 H         2.891243        -1.433745         0.759739
 H         2.554793        -1.656839        -1.080801
 H         5.217402         1.252127        -1.063193
 H         5.348263        -0.391479        -0.322227
 H         5.281023        -0.221700        -2.006859
 H         1.014818         2.018245        -1.164633
 H         3.041955         2.292412         0.481702
