19
Iteration:  1437charge 0 multiplicity 1
 C        -0.033454        -0.702308         0.204996
 C         1.293952        -0.080812        -0.126097
 C         2.531853        -0.965952        -0.383813
 C         3.372598         0.308019        -0.782491
 C         4.918476         0.150343        -0.948699
 O         2.624315         0.858397        -2.074053
 C         1.625106         1.321020        -0.969554
 C         2.655462         1.417512         0.167007
 O         1.860833         0.676053         1.106603
 H         0.292856        -1.226081         1.093533
 H        -0.767315         0.142373         0.534309
 H        -0.573101        -1.350331        -0.532413
 H         2.825296        -1.585445         0.455037
 H         2.326262        -1.533280        -1.298650
 H         5.456773         1.049368        -0.727735
 H         5.412689        -0.557416        -0.088324
 H         5.233460        -0.215454        -1.918260
 H         0.823672         1.849841        -1.444457
 H         3.178939         2.339724         0.550561
