19
Iteration:  3383charge 0 multiplicity 1
 C        -0.163935        -0.652911        -0.016661
 C         1.325377        -0.011014        -0.053782
 C         2.608431        -0.870499        -0.372921
 C         3.464199         0.270784        -0.802784
 C         4.914167         0.177254        -1.122073
 O         2.540658         0.832533        -1.947423
 C         1.707002         1.201338        -0.881372
 C         2.685960         1.390938         0.256070
 O         1.852474         0.635862         1.212449
 H        -0.162555        -1.447691         0.776225
 H        -0.858255         0.098479         0.302797
 H        -0.413440        -0.923930        -1.106732
 H         2.804448        -1.647361         0.389304
 H         2.450897        -1.479033        -1.300272
 H         5.399085         1.150793        -0.805880
 H         5.467086        -0.660332        -0.719958
 H         5.009044         0.035647        -2.185274
 H         0.806290         1.766620        -1.216688
 H         3.055893         2.376671         0.645375
