19
Iteration:   399charge 0 multiplicity 1
 C        -0.044225        -0.713683         0.037897
 C         1.262272        -0.030095         0.000311
 C         2.543318        -0.904344        -0.401382
 C         3.401003         0.304997        -0.776502
 C         4.949447         0.158803        -1.088745
 O         2.630784         0.909211        -1.922830
 C         1.634774         1.290503        -0.973515
 C         2.663087         1.357355         0.199817
 O         1.810593         0.626853         1.198678
 H        -0.021865        -1.627342         0.653660
 H        -0.886317        -0.151594         0.243087
 H        -0.185143        -1.104120        -1.052838
 H         2.922729        -1.480692         0.361852
 H         2.527787        -1.655434        -1.290562
 H         5.195912         1.075533        -1.681676
 H         5.610978         0.230684        -0.301920
 H         5.158325        -0.786857        -1.638357
 H         0.814834         2.029532        -1.272291
 H         3.222739         2.170727         0.688582
