19
Iteration:  4837
 C        -0.122396        -0.643190         0.133907
 C         1.298122        -0.102101        -0.032189
 C         2.508866        -0.916209        -0.518152
 C         3.408218         0.292721        -0.804731
 C         4.965377         0.209448        -1.011108
 O         2.661016         0.875746        -1.966010
 C         1.656688         1.232510        -0.900089
 C         2.679533         1.404907         0.171550
 O         1.815847         0.623299         1.157543
 H        -0.036182        -1.440197         0.936718
 H        -0.719298         0.189205         0.379294
 H        -0.476965        -1.229618        -0.713197
 H         2.930437        -1.701128         0.139684
 H         2.270476        -1.406289        -1.468813
 H         5.469429         1.106486        -0.699556
 H         5.140177        -0.607016        -0.256543
 H         5.176896        -0.070578        -2.103758
 H         0.994634         1.980541        -1.155515
 H         3.229006         2.293251         0.497364
