19
Iteration:  2355charge 0 multiplicity 1
 C         0.009944        -0.661716         0.123739
 C         1.370304        -0.077913        -0.145503
 C         2.457306        -0.967037        -0.562257
 C         3.404975         0.280501        -0.780720
 C         4.865084         0.080384        -1.008321
 O         2.648959         0.965756        -1.904885
 C         1.611632         1.278698        -0.889269
 C         2.616968         1.373432         0.215958
 O         1.894694         0.666195         1.129303
 H         0.016618        -1.000791         1.223724
 H        -0.781374         0.209973         0.265394
 H        -0.429381        -1.566035        -0.359908
 H         2.601576        -1.678076         0.127674
 H         2.335894        -1.385767        -1.640662
 H         5.367101         1.089676        -1.052500
 H         5.373765        -0.233678        -0.114066
 H         5.065054        -0.595686        -1.963629
 H         0.832841         2.121730        -1.189337
 H         3.229799         2.090091         0.756559
