19
Iteration:  4514
 C        -0.059256        -0.758278         0.158717
 C         1.321614        -0.084184        -0.012094
 C         2.529562        -0.906824        -0.437345
 C         3.384716         0.232632        -0.851802
 C         4.887057         0.126617        -0.967981
 O         2.681550         1.001293        -2.003389
 C         1.615963         1.216645        -0.964597
 C         2.703195         1.367341         0.124802
 O         1.855408         0.717194         1.163300
 H        -0.023266        -1.710431         0.721085
 H        -0.623545        -0.045237         0.676942
 H        -0.555373        -0.834890        -0.781383
 H         2.944116        -1.701599         0.193971
 H         2.149496        -1.382685        -1.341503
 H         5.014769         1.126653        -1.285372
 H         5.226306        -0.032380         0.100953
 H         5.114276        -0.630346        -1.726015
 H         0.795106         1.917363        -1.114857
 H         3.120525         2.310749         0.488532
