19
Iteration:  4900charge 0 multiplicity 1
 C        -0.112270        -0.569988         0.016043
 C         1.293551        -0.031755        -0.062057
 C         2.520815        -0.933774        -0.450375
 C         3.459388         0.230964        -0.779243
 C         5.021919         0.242589        -1.052040
 O         2.531032         0.897018        -1.942986
 C         1.619817         1.194698        -0.914666
 C         2.691535         1.300240         0.253254
 O         1.839389         0.611877         1.160790
 H        -0.041801        -1.566463         0.518956
 H        -0.691128         0.001050         0.758564
 H        -0.554173        -0.602803        -1.029039
 H         2.933335        -1.529298         0.348781
 H         2.324533        -1.437354        -1.408228
 H         5.370174         1.025151        -1.664532
 H         5.495032         0.437540        -0.091715
 H         5.535205        -0.668762        -1.405707
 H         0.782808         1.852302        -1.209285
 H         3.318495         1.984518         0.657765
