19
Iteration:  4190charge 0 multiplicity 1
 C        -0.103111        -0.801371         0.254591
 C         1.286587        -0.033726        -0.069948
 C         2.528639        -0.869499        -0.448978
 C         3.382906         0.303750        -0.807091
 C         4.865554         0.143980        -0.947577
 O         2.699098         0.983415        -1.998664
 C         1.654355         1.237310        -1.008941
 C         2.697998         1.358628         0.121178
 O         1.818978         0.674135         1.085745
 H         0.130136        -1.492723         1.001718
 H        -0.893606        -0.107914         0.575447
 H        -0.354845        -1.471410        -0.551279
 H         2.965339        -1.443044         0.423127
 H         2.486289        -1.529646        -1.320316
 H         5.340847         1.108413        -0.988467
 H         5.232302        -0.464448        -0.051969
 H         5.228868        -0.486325        -1.783999
 H         0.940306         1.976157        -1.273425
 H         3.219716         2.166102         0.538841
