19
Iteration:   172charge 0 multiplicity 1
 C        -0.113706        -0.646655         0.114606
 C         1.280263        -0.090360        -0.071213
 C         2.531207        -0.945923        -0.446506
 C         3.437469         0.433836        -0.769278
 C         4.920541         0.261373        -1.040331
 O         2.589583         0.852223        -1.912014
 C         1.716116         1.223435        -0.928430
 C         2.640088         1.335982         0.219322
 O         1.881225         0.590154         1.094624
 H        -0.343455        -1.442916         0.836539
 H        -0.885877         0.058126         0.221398
 H        -0.470944        -1.241985        -0.855441
 H         2.937121        -1.419931         0.441187
 H         2.497565        -1.549489        -1.445663
 H         5.284749         0.439060        -2.107119
 H         5.532328         0.731661        -0.346172
 H         5.160342        -0.885410        -0.874622
 H         0.994011         2.008498        -1.210031
 H         3.159491         2.201208         0.572724
