19
Iteration:   908charge 0 multiplicity 1
 C        -0.079890        -0.674503         0.053487
 C         1.294536        -0.133705        -0.017751
 C         2.444970        -1.001344        -0.377206
 C         3.394761         0.352729        -0.785543
 C         4.894375         0.192205        -1.046479
 O         2.626974         0.915063        -2.002727
 C         1.700864         1.277291        -0.951155
 C         2.792791         1.328548         0.169026
 O         1.810771         0.665399         1.182804
 H        -0.047786        -1.144991         0.997236
 H        -0.712126         0.138315         0.281315
 H        -0.320038        -1.233858        -0.909204
 H         2.807423        -1.418537         0.522202
 H         2.615382        -1.771764        -1.239381
 H         5.252020         1.332893        -1.018215
 H         5.379317        -0.335283        -0.295920
 H         4.881982        -0.297070        -2.063780
 H         0.895934         1.987232        -1.237772
 H         3.275497         2.196258         0.639186
