19
Iteration:  3070
 C        -0.089372        -0.525219        -0.065514
 C         1.325791        -0.054049        -0.096237
 C         2.679337        -0.950980        -0.318972
 C         3.365865         0.281949        -0.803129
 C         4.876304         0.174433        -1.115306
 O         2.501287         0.777918        -1.933771
 C         1.670340         1.186820        -0.893904
 C         2.695775         1.375879         0.275786
 O         1.878489         0.686623         1.190774
 H        -0.231418        -1.374113         0.571410
 H        -0.838213         0.296907         0.166879
 H        -0.415424        -0.934224        -1.063075
 H         2.902195        -1.345171         0.643366
 H         2.497231        -1.808592        -0.940634
 H         5.246386         1.068736        -1.745766
 H         5.362358         0.249202        -0.170924
 H         5.156507        -0.648062        -1.701987
 H         0.877754         1.922270        -1.246851
 H         3.417620         2.107362         0.676867
