19
Iteration:  4196
 C        -0.078955        -0.790473         0.214436
 C         1.236495        -0.068786        -0.022402
 C         2.511952        -0.888561        -0.444078
 C         3.377294         0.317124        -0.799079
 C         4.873275         0.114835        -0.978056
 O         2.733618         0.952517        -1.998955
 C         1.656810         1.259843        -0.954571
 C         2.693787         1.417502         0.178508
 O         1.852335         0.652875         1.018841
 H         0.141378        -1.475456         1.155634
 H        -0.927671        -0.183531         0.522307
 H        -0.427647        -1.496410        -0.580460
 H         2.861643        -1.425553         0.408439
 H         2.354189        -1.563981        -1.299686
 H         5.182311         1.191129        -1.040571
 H         5.264000        -0.190192         0.000918
 H         5.163495        -0.459648        -1.859113
 H         0.951597         2.015868        -1.405206
 H         3.158318         2.403784         0.524254
