19
Iteration:  2804
 C        -0.036578        -0.695095         0.327432
 C         1.266908        -0.016155        -0.093115
 C         2.486398        -0.893560        -0.555156
 C         3.497503         0.256316        -0.769157
 C         4.884075         0.112516        -0.991608
 O         2.736599         0.801162        -1.965969
 C         1.673799         1.272999        -1.048380
 C         2.615430         1.417775         0.173865
 O         1.809027         0.729504         1.094181
 H         0.159558        -1.549203         1.127611
 H        -0.852919        -0.092334         0.825252
 H        -0.554116        -1.256571        -0.446239
 H         2.670871        -1.724039         0.147851
 H         2.253652        -1.305076        -1.544294
 H         5.253903         1.138084        -1.007158
 H         5.045897        -0.276868         0.069293
 H         5.093651        -0.449664        -1.853824
 H         0.910016         1.942516        -1.361853
 H         2.988477         2.463401         0.548246
