19
Iteration:  3456
 C        -0.051010        -0.618040         0.158293
 C         1.284962        -0.012475        -0.021883
 C         2.552922        -0.962524        -0.588414
 C         3.399916         0.287259        -0.758761
 C         4.922770         0.112496        -1.053776
 O         2.646869         0.990187        -1.936788
 C         1.612353         1.266073        -0.923204
 C         2.677306         1.334865         0.202979
 O         1.773774         0.571310         1.148959
 H         0.275584        -1.473168         0.841225
 H        -0.858757         0.064354         0.532677
 H        -0.358886        -1.056402        -0.779950
 H         2.987498        -1.620756         0.238950
 H         2.480163        -1.475531        -1.552018
 H         5.400752         0.922147        -1.640086
 H         5.503728         0.113277         0.032689
 H         5.331938        -0.850084        -1.597531
 H         0.976192         2.074754        -1.190482
 H         3.075487         2.264016         0.628041
