19
Iteration:  1011charge 0 multiplicity 1
 C        -0.082605        -0.725402         0.129846
 C         1.330491        -0.004690        -0.021915
 C         2.546013        -0.861103        -0.479208
 C         3.428824         0.270513        -0.748581
 C         4.858308         0.132495        -1.029083
 O         2.587894         0.833857        -1.960633
 C         1.696934         1.295358        -0.998733
 C         2.693944         1.417896         0.197752
 O         1.798334         0.647046         1.165199
 H         0.043662        -1.685157         0.699512
 H        -0.747800         0.094788         0.476447
 H        -0.222488        -1.044476        -0.864808
 H         2.853761        -1.700184         0.194880
 H         2.394513        -1.395895        -1.352610
 H         5.314916         0.999283        -1.410206
 H         5.392343        -0.078568         0.038582
 H         5.096135        -0.602934        -1.777928
 H         0.948174         2.066836        -1.264784
 H         3.420574         2.189123         0.479963
