19
Iteration:  4596charge 0 multiplicity 1
 C        -0.108607        -0.658244         0.070541
 C         1.308541        -0.109172        -0.049566
 C         2.473200        -0.939588        -0.386679
 C         3.413664         0.243914        -0.789566
 C         4.868714         0.219972        -1.050350
 O         2.653346         0.914550        -1.969642
 C         1.687306         1.258932        -0.936925
 C         2.685250         1.383833         0.162029
 O         1.889407         0.621352         1.156791
 H        -0.270183        -0.974858         1.100512
 H        -0.977614         0.022984        -0.051033
 H        -0.307606        -1.568563        -0.526896
 H         3.018266        -1.289448         0.483486
 H         2.371821        -1.771046        -1.110238
 H         5.249265         1.229833        -0.669043
 H         5.440764        -0.553823        -0.584652
 H         5.077449         0.201745        -2.128791
 H         0.841454         1.901069        -1.059207
 H         3.279616         2.266438         0.405918
