19
Iteration:  2925charge 0 multiplicity 1
 C        -0.083363        -0.571014         0.062755
 C         1.302710        -0.027344        -0.108387
 C         2.537221        -0.953500        -0.331489
 C         3.456814         0.242845        -0.765053
 C         4.886088         0.199771        -1.137852
 O         2.639521         0.762785        -1.870967
 C         1.649254         1.241888        -0.932624
 C         2.728212         1.367219         0.214919
 O         1.812525         0.678218         1.080434
 H        -0.251005        -1.033497         1.124271
 H        -0.850736         0.166131        -0.009105
 H        -0.405595        -1.386976        -0.607222
 H         2.889413        -1.404006         0.614870
 H         2.463129        -1.760145        -0.984266
 H         5.186056         1.277091        -1.207755
 H         5.477114        -0.304241        -0.295501
 H         4.818229        -0.100448        -2.166341
 H         0.895425         1.897689        -1.307779
 H         3.167097         2.424876         0.549750
