19
Iteration:  1752charge 0 multiplicity 1
 C        -0.045847        -0.686178         0.060674
 C         1.304536        -0.108502        -0.107549
 C         2.590584        -0.895410        -0.400369
 C         3.435107         0.272939        -0.719862
 C         4.856994         0.101042        -1.048255
 O         2.538749         0.907596        -1.951089
 C         1.635367         1.215125        -0.963781
 C         2.692929         1.422068         0.225863
 O         1.866837         0.710793         1.128638
 H        -0.022782        -1.451284         0.824062
 H        -0.739412         0.054372         0.499878
 H        -0.368622        -0.985099        -0.969357
 H         2.945317        -1.548748         0.470147
 H         2.576116        -1.457044        -1.268937
 H         5.172032         0.911890        -1.726356
 H         5.504049         0.159527        -0.099352
 H         5.122971        -0.832809        -1.501974
 H         0.832154         1.902308        -1.178327
 H         3.191380         2.338005         0.638109
