19
Iteration:  4078charge 0 multiplicity 1
 C        -0.106256        -0.623408        -0.047054
 C         1.303053        -0.071253        -0.077267
 C         2.505922        -0.904320        -0.376757
 C         3.452379         0.284775        -0.742078
 C         4.849310         0.200477        -1.105779
 O         2.630620         0.865000        -1.878397
 C         1.676747         1.158755        -0.971837
 C         2.666269         1.437579         0.218665
 O         1.957845         0.638310         1.205269
 H        -0.207890        -1.437727         0.788699
 H        -0.945047        -0.022066         0.164324
 H        -0.475263        -1.339797        -0.798514
 H         2.859201        -1.519791         0.480416
 H         2.331002        -1.559043        -1.303080
 H         5.019329         1.033744        -1.854104
 H         5.547370         0.245117        -0.153987
 H         4.931429        -0.802817        -1.598895
 H         0.817484         1.879859        -1.087159
 H         2.889363         2.515640         0.453372
