19
Iteration:  1529charge 0 multiplicity 1
 C        -0.152813        -0.636931         0.050636
 C         1.289939        -0.124279        -0.009235
 C         2.477080        -0.935257        -0.387800
 C         3.478554         0.264512        -0.772110
 C         4.943430         0.285468        -1.084417
 O         2.625094         0.804260        -1.963297
 C         1.661603         1.211979        -0.967895
 C         2.667292         1.329062         0.188105
 O         1.896023         0.721199         1.222320
 H        -0.386797        -1.531027         0.699802
 H        -0.706572         0.243663         0.242677
 H        -0.288859        -0.958193        -1.013768
 H         2.845951        -1.394937         0.541648
 H         2.350222        -1.789485        -1.157526
 H         5.135186         1.148270        -1.805789
 H         5.573971         0.335193        -0.268703
 H         5.184231        -0.657278        -1.660130
 H         0.883462         1.982132        -1.241122
 H         3.034783         2.312433         0.408306
