19
Iteration:  4481
 C         0.068178        -0.723950         0.190467
 C         1.275024         0.037766        -0.115500
 C         2.462631        -0.851530        -0.501231
 C         3.389291         0.347755        -0.796423
 C         4.908146         0.108732        -0.919880
 O         2.609130         0.832536        -2.024352
 C         1.622066         1.333660        -0.959116
 C         2.652634         1.418185         0.161692
 O         1.875265         0.542725         1.151574
 H         0.283770        -1.739667         0.629272
 H        -0.404182        -0.142993         0.891716
 H        -0.513850        -0.914432        -0.676428
 H         2.689127        -1.543218         0.320311
 H         2.143863        -1.321521        -1.417254
 H         5.373268         0.729412        -1.646358
 H         5.432410         0.313646         0.089231
 H         5.223643        -0.947734        -1.219140
 H         0.879752         2.013845        -1.302647
 H         2.947120         2.337970         0.659678
