19
Iteration:  2019
 C        -0.199771        -0.662730         0.136729
 C         1.269650        -0.036626        -0.092863
 C         2.537122        -0.924779        -0.512310
 C         3.411468         0.303378        -0.844366
 C         4.944561         0.211310        -1.072819
 O         2.619074         0.834511        -1.972243
 C         1.730918         1.317024        -0.875273
 C         2.694011         1.373633         0.261503
 O         1.864927         0.559343         1.222494
 H        -0.257064        -1.349329         1.024097
 H        -0.867618         0.256115         0.130386
 H        -0.670721        -1.277168        -0.618714
 H         3.030196        -1.344827         0.269787
 H         2.520545        -1.569931        -1.442670
 H         5.382944         1.220562        -1.113403
 H         5.413100        -0.550133        -0.402239
 H         5.177675        -0.195175        -2.174685
 H         0.900348         2.102443        -1.088690
 H         3.312744         2.263024         0.499565
