19
Iteration:   898
 C        -0.039197        -0.657737         0.021131
 C         1.322890        -0.029885        -0.087961
 C         2.503438        -0.967275        -0.321820
 C         3.429036         0.290389        -0.786942
 C         4.902533         0.181991        -1.108295
 O         2.584492         0.899109        -1.882631
 C         1.681648         1.244341        -0.914835
 C         2.717269         1.325071         0.210837
 O         1.796095         0.681065         1.123032
 H        -0.141540        -1.281051         0.915903
 H        -0.808893         0.049985         0.004823
 H        -0.409661        -1.439523        -0.731795
 H         2.889844        -1.452600         0.532128
 H         2.392413        -1.571963        -1.291827
 H         5.556715         1.144276        -1.175980
 H         5.347391        -0.524616        -0.439850
 H         5.101556        -0.255858        -2.128520
 H         0.889151         2.001284        -1.023154
 H         3.221703         2.243606         0.440867
