19
Iteration:  3461charge 0 multiplicity 1
 C        -0.028990        -0.610384         0.184364
 C         1.291404        -0.037719        -0.032410
 C         2.508244        -0.966243        -0.583434
 C         3.444001         0.300493        -0.757073
 C         4.897687         0.117800        -0.992363
 O         2.658207         1.010421        -1.947662
 C         1.617412         1.217198        -0.928234
 C         2.663406         1.302210         0.184457
 O         1.792205         0.591345         1.133821
 H         0.110754        -1.438195         0.836438
 H        -0.748537         0.112548         0.518300
 H        -0.409390        -1.044866        -0.769346
 H         2.968684        -1.663817         0.070494
 H         2.463264        -1.319412        -1.640359
 H         5.200244         0.952485        -1.647510
 H         5.385151         0.154505        -0.127527
 H         5.312463        -0.683047        -1.497015
 H         0.874602         2.073425        -1.038404
 H         3.256057         2.184309         0.505504
