19
Iteration:  1203
 C        -0.110067        -0.645600         0.073803
 C         1.333383        -0.083558        -0.003215
 C         2.585962        -0.957879        -0.353991
 C         3.357026         0.282272        -0.788981
 C         4.855373         0.233295        -1.116587
 O         2.646720         0.806528        -1.952433
 C         1.757807         1.312741        -0.926242
 C         2.682241         1.347234         0.206401
 O         1.815741         0.685439         1.108962
 H        -0.304910        -1.397092         0.892803
 H        -0.862790         0.095950         0.137250
 H        -0.318429        -1.105680        -0.937580
 H         2.913988        -1.367902         0.665968
 H         2.500499        -1.763436        -1.037543
 H         5.203967         1.257000        -1.610642
 H         5.395858        -0.029952        -0.242806
 H         4.907110        -0.621870        -1.919828
 H         0.779557         1.876217        -1.205421
 H         3.190215         2.159636         0.749468
