19
Iteration:  3546
 C        -0.092137        -0.660738         0.075248
 C         1.305991        -0.043670         0.064748
 C         2.490989        -0.878896        -0.504596
 C         3.427564         0.282834        -0.761390
 C         4.906483         0.150358        -1.115614
 O         2.720022         0.936724        -1.924828
 C         1.646196         1.207290        -0.945316
 C         2.649880         1.357290         0.218826
 O         1.840186         0.589219         1.174401
 H        -0.233501        -1.471959         0.843959
 H        -0.785248         0.138364         0.304427
 H        -0.413949        -0.998993        -0.963488
 H         3.007442        -1.554509         0.151108
 H         2.262390        -1.466243        -1.437862
 H         5.282221         1.241006        -1.016183
 H         5.466731        -0.559703        -0.339106
 H         4.804427        -0.200012        -2.187975
 H         0.956498         1.997841        -1.281474
 H         3.016961         2.320001         0.647781
