19
Iteration:  3082
 C        -0.086076        -0.619495        -0.042988
 C         1.322699        -0.059912         0.044026
 C         2.507100        -0.907746        -0.292335
 C         3.460031         0.268176        -0.778689
 C         4.891889         0.178865        -1.123437
 O         2.558234         0.828186        -1.955735
 C         1.650928         1.218393        -0.940026
 C         2.756349         1.300758         0.215448
 O         1.850061         0.695201         1.172512
 H        -0.397686        -1.302712         0.699341
 H        -0.797128         0.316303         0.016274
 H        -0.071982        -0.970979        -1.114149
 H         3.028162        -1.267938         0.567558
 H         2.551048        -1.561514        -1.194642
 H         5.079581         1.165182        -1.622731
 H         5.542731         0.024590        -0.333059
 H         5.038214        -0.662877        -1.758576
 H         0.753602         1.915688        -1.184409
 H         3.047440         2.252801         0.569224
