19
Iteration:  2081
 C        -0.092318        -0.753894        -0.035521
 C         1.280867         0.021227        -0.022721
 C         2.523456        -0.823612        -0.428816
 C         3.419607         0.304111        -0.836890
 C         4.997371         0.031526        -1.188256
 O         2.583245         0.880743        -1.886734
 C         1.629936         1.322591        -0.832679
 C         2.665121         1.445441         0.317199
 O         1.863113         0.622886         1.182889
 H        -0.055596        -1.643170         0.538863
 H        -0.830264        -0.187645         0.466343
 H        -0.377464        -0.821363        -1.172294
 H         2.928350        -1.480380         0.478220
 H         2.231998        -1.617973        -1.270494
 H         5.469692         0.932309        -1.752467
 H         5.563909        -0.322940        -0.369039
 H         5.100989        -0.759029        -1.903094
 H         0.778998         1.895276        -1.174402
 H         3.299136         2.220977         0.850185
