19
Iteration:  2435charge 0 multiplicity 1
 C        -0.068678        -0.566026         0.035649
 C         1.331316        -0.075605         0.011699
 C         2.470477        -0.887051        -0.449835
 C         3.408104         0.318479        -0.800568
 C         4.906115         0.222843        -1.056874
 O         2.612574         0.797865        -1.989513
 C         1.668503         1.219073        -0.917859
 C         2.740854         1.326052         0.179416
 O         1.849505         0.622452         1.261650
 H        -0.354253        -1.644725         0.497967
 H        -0.783062         0.130739         0.566538
 H        -0.550998        -0.516170        -0.962275
 H         3.045908        -1.574485         0.239234
 H         2.360851        -1.373690        -1.391110
 H         5.282056         1.166274        -1.406495
 H         5.393975        -0.319617        -0.173070
 H         4.970042        -0.470574        -1.898304
 H         0.838986         1.775282        -1.266947
 H         3.267615         2.241849         0.518230
