19
Iteration:  3051charge 0 multiplicity 1
 C        -0.052028        -0.510682         0.021306
 C         1.331747        -0.064613        -0.020032
 C         2.553116        -0.938957        -0.362573
 C         3.375141         0.290599        -0.815984
 C         4.900473         0.240123        -1.068187
 O         2.611829         0.740764        -1.919592
 C         1.642036         1.230125        -0.915576
 C         2.710447         1.369804         0.171737
 O         1.860354         0.599399         1.147108
 H        -0.346626        -1.443680         0.524665
 H        -0.709811         0.297190         0.550742
 H        -0.518621        -0.614789        -0.974764
 H         2.988262        -1.413378         0.549105
 H         2.514555        -1.675186        -1.280539
 H         5.054055         1.018838        -1.758097
 H         5.339681         0.313866        -0.090625
 H         5.140965        -0.806115        -1.433175
 H         0.818165         1.974903        -1.190136
 H         2.979558         2.336866         0.426900
