19
Iteration:  2274charge 0 multiplicity 1
 C        -0.158428        -0.637246         0.135676
 C         1.320729        -0.075045        -0.070252
 C         2.516501        -0.872741        -0.525841
 C         3.421528         0.332977        -0.821602
 C         4.857864         0.189636        -1.065284
 O         2.614837         0.848235        -1.927721
 C         1.744445         1.254176        -0.927813
 C         2.667519         1.345319         0.243896
 O         1.889868         0.589786         1.206024
 H        -0.173665        -1.657834         0.521114
 H        -0.751994         0.043968         0.675049
 H        -0.532394        -0.585151        -0.919151
 H         2.916350        -1.676416         0.259267
 H         2.243946        -1.331387        -1.435248
 H         5.341494         1.146417        -1.499610
 H         5.449266        -0.199687        -0.160671
 H         5.160061        -0.546092        -1.797156
 H         1.019270         1.911602        -1.264651
 H         3.153306         2.274993         0.638396
