19
Iteration:  3054charge 0 multiplicity 1
 C        -0.073558        -0.498679        -0.013768
 C         1.344216        -0.065193        -0.029642
 C         2.560377        -0.951754        -0.359806
 C         3.396522         0.264588        -0.837795
 C         4.869739         0.252977        -1.091053
 O         2.609338         0.722216        -1.903049
 C         1.640783         1.264773        -0.890673
 C         2.686074         1.378348         0.156928
 O         1.856937         0.598599         1.161294
 H        -0.270019        -1.453922         0.630958
 H        -0.632022         0.241943         0.516496
 H        -0.500555        -0.641001        -0.983251
 H         3.038806        -1.328361         0.589481
 H         2.612450        -1.648028        -1.230220
 H         5.165377         1.067381        -1.777401
 H         5.359863         0.242903        -0.015933
 H         5.098758        -0.852666        -1.358889
 H         0.833010         1.912100        -1.092719
 H         3.086584         2.413757         0.469364
