19
Iteration:  4904charge 0 multiplicity 1
 C        -0.140987        -0.605968         0.001044
 C         1.324303        -0.007148        -0.033295
 C         2.470728        -0.929844        -0.449832
 C         3.469728         0.245242        -0.789858
 C         5.016617         0.212014        -1.048024
 O         2.550887         0.904716        -1.919114
 C         1.635936         1.218477        -0.935164
 C         2.691401         1.311370         0.232243
 O         1.848258         0.597637         1.151854
 H        -0.003433        -1.605599         0.511563
 H        -0.636387         0.025961         0.733687
 H        -0.552308        -0.683319        -0.978991
 H         2.909414        -1.569174         0.354669
 H         2.376627        -1.449679        -1.402347
 H         5.298495         1.060469        -1.733512
 H         5.420325         0.519507        -0.031800
 H         5.549625        -0.708084        -1.416660
 H         0.625365         1.671607        -1.024660
 H         3.350883         2.204926         0.629312
