19
Iteration:  2548charge 0 multiplicity 1
 C        -0.022063        -0.686053         0.025249
 C         1.301620        -0.063860        -0.042848
 C         2.555623        -0.834598        -0.402459
 C         3.410344         0.294048        -0.822707
 C         4.830494         0.099664        -1.120265
 O         2.593868         0.848801        -1.888369
 C         1.699369         1.299433        -0.935684
 C         2.684469         1.379899         0.252941
 O         1.830466         0.637534         1.163934
 H        -0.384839        -0.929168         1.108510
 H        -0.671928         0.205220        -0.220827
 H        -0.140208        -1.514555        -0.799708
 H         3.050045        -1.256114         0.514211
 H         2.340821        -1.757956        -1.031907
 H         5.408601         0.905675        -1.650005
 H         5.331350        -0.293482        -0.262532
 H         4.802574        -0.647136        -1.958035
 H         1.055771         2.230366        -1.089567
 H         3.240344         2.249088         0.624067
