19
Iteration:  3028charge 0 multiplicity 1
 C        -0.145527        -0.601605         0.169346
 C         1.282168        -0.081994        -0.017235
 C         2.457552        -0.966258        -0.483635
 C         3.443470         0.203409        -0.717898
 C         4.965917         0.254807        -0.993520
 O         2.677105         0.887543        -1.995333
 C         1.670000         1.169180        -1.028004
 C         2.657320         1.366172         0.144938
 O         1.901141         0.727440         1.158156
 H        -0.117229        -1.539107         0.691997
 H        -0.815276         0.050882         0.889531
 H        -0.803116        -0.838435        -0.736922
 H         2.835713        -1.696795         0.249844
 H         2.365215        -1.439506        -1.546473
 H         5.123929         1.091582        -1.664365
 H         5.428230         0.211975        -0.045975
 H         5.139827        -0.749134        -1.414902
 H         0.659260         1.664339        -1.303491
 H         3.309547         2.119762         0.477414
