19
Iteration:  4548charge 0 multiplicity 1
 C        -0.137099        -0.591530         0.112341
 C         1.309294        -0.071362        -0.130087
 C         2.617693        -0.883652        -0.401056
 C         3.455883         0.279409        -0.746081
 C         4.850323         0.241925        -1.072392
 O         2.596229         0.768815        -1.895251
 C         1.609067         1.220484        -0.952103
 C         2.703684         1.381885         0.240876
 O         1.872900         0.596062         1.077245
 H        -0.236796        -1.157812         1.006416
 H        -0.764811         0.293625         0.379859
 H        -0.655909        -1.207035        -0.627451
 H         2.814090        -1.539778         0.459688
 H         2.669086        -1.385173        -1.365259
 H         5.309878         1.262985        -0.937663
 H         5.586891        -0.457898        -0.567240
 H         5.089526         0.049053        -2.137836
 H         0.854286         1.986019        -1.341393
 H         3.263116         2.219825         0.691297
