19
Iteration:  1193charge 0 multiplicity 1
 C        -0.075306        -0.646455         0.062894
 C         1.299776        -0.125397         0.012507
 C         2.469621        -0.939976        -0.309422
 C         3.383326         0.285760        -0.778295
 C         4.895500         0.198455        -1.073277
 O         2.658279         0.880928        -1.934437
 C         1.666296         1.242861        -0.948935
 C         2.710594         1.448498         0.188046
 O         1.846567         0.627024         1.076728
 H        -0.215114        -1.555002         0.762935
 H        -0.686829         0.144675         0.415866
 H        -0.350594        -1.098870        -0.913657
 H         3.066802        -1.446670         0.591898
 H         2.255175        -1.610267        -1.109105
 H         5.246446         1.086504        -1.706331
 H         5.575748         0.093698        -0.279554
 H         5.030703        -0.685857        -1.825921
 H         0.782216         1.921478        -1.353609
 H         3.361349         2.294461         0.392440
