19
Iteration:   322
 C        -0.017393        -0.641761         0.175700
 C         1.327454        -0.091196        -0.125482
 C         2.595749        -0.968796        -0.466119
 C         3.363324         0.245072        -0.794392
 C         4.831906         0.288324        -0.949471
 O         2.676623         0.849694        -1.946932
 C         1.600697         1.298539        -1.013980
 C         2.627134         1.366628         0.199664
 O         1.873529         0.649961         1.120064
 H         0.006715        -1.341062         1.014371
 H        -0.679037         0.080100         0.466127
 H        -0.460414        -1.226662        -0.711806
 H         2.700751        -1.632226         0.300055
 H         2.372695        -1.613502        -1.434641
 H         5.353402         1.080756        -0.371231
 H         5.204758        -0.598590        -0.569936
 H         5.056229         0.164940        -2.034101
 H         0.705693         1.910615        -1.395150
 H         3.335421         2.057483         0.742189
