19
Iteration:    36
 C        -0.078762        -0.635458        -0.035500
 C         1.264122        -0.035413        -0.017650
 C         2.560875        -0.908372        -0.437450
 C         3.455874         0.244703        -0.774190
 C         4.946832         0.242014        -1.159606
 O         2.614070         0.945159        -1.868536
 C         1.691216         1.205670        -0.874084
 C         2.619678         1.250097         0.326583
 O         1.804782         0.612899         1.119435
 H        -0.185355        -1.417107         0.698250
 H        -0.932614         0.119718         0.061795
 H        -0.128587        -1.045632        -0.954925
 H         2.900244        -1.452615         0.480256
 H         2.498569        -1.592791        -1.202146
 H         5.469967        -0.648410        -1.019771
 H         4.955603         0.461123        -2.306135
 H         5.422251         1.022296        -0.679940
 H         0.966928         1.967177        -1.121574
 H         3.152789         2.132686         0.789623
