19
Iteration:  2097charge 0 multiplicity 1
 C        -0.021688        -0.649146         0.058011
 C         1.331830         0.002684        -0.090395
 C         2.485476        -0.892346        -0.456784
 C         3.431919         0.296878        -0.804269
 C         4.890463         0.089550        -1.077365
 O         2.540357         0.978898        -1.925303
 C         1.652015         1.263116        -0.881754
 C         2.735555         1.287508         0.181825
 O         1.835674         0.582590         1.192213
 H         0.125181        -1.685916         0.492205
 H        -0.751503        -0.087872         0.719127
 H        -0.408262        -0.844151        -0.890656
 H         2.820797        -1.315810         0.435968
 H         2.479055        -1.551057        -1.303697
 H         5.374408         0.972797        -1.409475
 H         5.438237         0.044572        -0.081984
 H         5.038906        -0.826173        -1.760015
 H         0.968029         2.157839        -1.041274
 H         3.169689         2.210675         0.508787
