19
Iteration:   479charge 0 multiplicity 1
 C        -0.098739        -0.638983         0.194020
 C         1.298975        -0.043861        -0.096411
 C         2.567447        -0.954819        -0.604660
 C         3.429830         0.282527        -0.800105
 C         4.932296         0.269100        -0.894001
 O         2.621903         0.939721        -1.939386
 C         1.607438         1.182291        -0.932887
 C         2.668834         1.298186         0.099301
 O         1.875540         0.618019         1.142742
 H        -0.143682        -1.399042         0.999115
 H        -0.878699         0.186585         0.531801
 H        -0.657054        -1.001090        -0.610861
 H         2.934757        -1.578512         0.352328
 H         2.399688        -1.616882        -1.400857
 H         5.467145         1.195998        -0.882262
 H         5.145869        -0.446373        -0.041791
 H         5.246670        -0.204554        -1.819288
 H         0.799181         1.841891        -1.262647
 H         3.198958         2.201700         0.383445
