19
Iteration:   917charge 0 multiplicity 1
 C        -0.112976        -0.647304         0.152440
 C         1.284502        -0.095650        -0.022657
 C         2.540069        -0.941923        -0.446830
 C         3.384048         0.267282        -0.807253
 C         4.817518         0.230268        -0.993564
 O         2.691978         0.901952        -2.034777
 C         1.701882         1.263799        -0.943149
 C         2.680225         1.351615         0.175818
 O         1.867443         0.625883         1.166879
 H        -0.221621        -1.461817         0.843590
 H        -0.841607         0.201154         0.275515
 H        -0.315876        -1.126379        -0.820621
 H         2.844556        -1.460364         0.469067
 H         2.227902        -1.773139        -1.186520
 H         5.305649         1.287213        -1.120939
 H         5.365746        -0.217060        -0.224422
 H         5.126389        -0.283956        -1.945953
 H         0.984646         1.978613        -1.358686
 H         3.373733         2.109216         0.666949
