19
Iteration:  2800charge 0 multiplicity 1
 C        -0.054885        -0.703408         0.323323
 C         1.255130        -0.006961        -0.100432
 C         2.491445        -0.917413        -0.528907
 C         3.475797         0.286415        -0.817730
 C         4.896262         0.132003        -0.996273
 O         2.732404         0.783934        -1.913846
 C         1.672518         1.253947        -1.047551
 C         2.614307         1.415216         0.192614
 O         1.820993         0.741679         1.095557
 H         0.154484        -1.375955         1.093716
 H        -0.854197        -0.039338         0.731623
 H        -0.528845        -1.255608        -0.508301
 H         2.682698        -1.784833         0.059405
 H         2.338580        -1.333052        -1.559592
 H         5.309276         1.136088        -0.962038
 H         5.142140        -0.264908        -0.024694
 H         5.087669        -0.503394        -1.986687
 H         0.968422         2.034379        -1.502704
 H         2.985861         2.297494         0.539420
