19
Iteration:  2479charge 0 multiplicity 1
 C        -0.018755        -0.549792         0.318345
 C         1.337572        -0.071947        -0.120586
 C         2.472542        -0.955873        -0.601185
 C         3.337195         0.309965        -0.801086
 C         4.837032         0.220557        -0.865126
 O         2.666317         0.933581        -2.004204
 C         1.707156         1.221611        -1.031767
 C         2.662503         1.270288         0.144941
 O         1.857277         0.575354         1.090338
 H         0.075148        -1.557109         0.954571
 H        -0.455414         0.102466         1.118562
 H        -0.757084        -0.728132        -0.491432
 H         2.739723        -1.585658         0.302999
 H         2.240348        -1.588947        -1.381296
 H         5.337792         1.179016        -1.047246
 H         5.156442        -0.203400         0.178833
 H         5.193948        -0.368497        -1.694701
 H         1.120580         2.016616        -1.356103
 H         3.290361         2.087851         0.592699
