19
Iteration:  3903charge 0 multiplicity 1
 C         0.008158        -0.665584         0.052242
 C         1.311475        -0.013424        -0.112003
 C         2.501419        -0.870697        -0.415281
 C         3.470558         0.287527        -0.811329
 C         4.923328         0.117581        -1.171145
 O         2.616493         0.846615        -1.896804
 C         1.704636         1.309149        -0.904501
 C         2.635103         1.378433         0.288324
 O         1.738935         0.636161         1.203056
 H        -0.013215        -1.406796         0.841586
 H        -0.815403        -0.048301         0.257941
 H        -0.294635        -1.165525        -0.841012
 H         2.895656        -1.489609         0.403954
 H         2.384872        -1.663864        -1.211188
 H         5.291354         1.063949        -1.539667
 H         5.412657        -0.282277        -0.292439
 H         5.021724        -0.499163        -2.032159
 H         0.961921         1.926596        -1.317496
 H         3.151492         2.164557         0.810273
