19
Iteration:  1859charge 0 multiplicity 1
 C        -0.057740        -0.573427         0.060993
 C         1.353359        -0.090280         0.046960
 C         2.582715        -0.926267        -0.395378
 C         3.429307         0.279449        -0.791918
 C         4.824812         0.188844        -1.130628
 O         2.619532         0.897850        -1.961976
 C         1.716526         1.194970        -0.894798
 C         2.647859         1.329174         0.203174
 O         1.804966         0.636635         1.144809
 H        -0.251121        -1.385576         0.756819
 H        -0.699297         0.325190         0.002080
 H        -0.096171        -1.098736        -0.841278
 H         2.909118        -1.669380         0.474972
 H         2.342433        -1.462559        -1.269231
 H         5.283473         1.128359        -1.006644
 H         5.280894        -0.508218        -0.357259
 H         4.901675        -0.186641        -2.156971
 H         0.877883         1.960459        -1.005495
 H         3.040370         2.350378         0.391140
