19
Iteration:  4756charge 0 multiplicity 1
 C         0.002899        -0.617042         0.102668
 C         1.330225        -0.072765        -0.097139
 C         2.538702        -0.936776        -0.467668
 C         3.421226         0.269517        -0.793578
 C         4.861706         0.156202        -1.058004
 O         2.609465         0.876624        -1.942215
 C         1.693427         1.259060        -0.876013
 C         2.689566         1.336133         0.264296
 O         1.770323         0.638446         1.114922
 H         0.066612        -1.034756         1.084841
 H        -0.773482         0.264314         0.250605
 H        -0.273656        -1.177001        -0.844254
 H         3.011585        -1.617903         0.250553
 H         2.444241        -1.400210        -1.481659
 H         5.253656         1.223786        -1.066480
 H         5.317106        -0.321813        -0.200302
 H         5.074731        -0.422318        -1.950043
 H         0.770482         1.961615        -1.133511
 H         2.920167         2.382640         0.523219
