19
Iteration:  4415charge 0 multiplicity 1
 C        -0.027183        -0.546777         0.066582
 C         1.327979         0.013747        -0.080367
 C         2.519808        -0.966014        -0.442446
 C         3.398924         0.322984        -0.730597
 C         4.855073         0.311573        -1.081635
 O         2.649549         0.762231        -1.903775
 C         1.571554         1.234656        -0.993986
 C         2.701140         1.311992         0.273224
 O         1.884115         0.561751         1.146454
 H        -0.116065        -1.088981         1.065829
 H        -0.745416         0.182816         0.038506
 H        -0.168585        -1.252008        -0.725755
 H         2.793744        -1.435787         0.494262
 H         2.478098        -1.685026        -1.247580
 H         5.070811         1.235071        -1.499335
 H         5.447940         0.021276        -0.168607
 H         4.832211        -0.394301        -1.910344
 H         0.756724         1.685489        -1.494469
 H         3.288946         2.193184         0.529919
