19
Iteration:  2549
 C        -0.022063        -0.683698         0.028988
 C         1.300977        -0.062955        -0.043581
 C         2.555320        -0.834126        -0.393589
 C         3.408551         0.293427        -0.808984
 C         4.848860         0.106728        -1.129075
 O         2.589204         0.850513        -1.889606
 C         1.703619         1.297339        -0.927498
 C         2.679125         1.369763         0.249043
 O         1.831639         0.643190         1.161377
 H        -0.398141        -0.935878         1.076789
 H        -0.683065         0.216665        -0.256011
 H        -0.145795        -1.490720        -0.806390
 H         3.023179        -1.279662         0.496084
 H         2.358055        -1.797802        -1.050989
 H         5.402884         0.895782        -1.665715
 H         5.327684        -0.319154        -0.296393
 H         4.810202        -0.668259        -1.974374
 H         1.032796         2.240079        -1.111989
 H         3.186977         2.238432         0.632276
