19
Iteration:  2390charge 0 multiplicity 1
 C        -0.115174        -0.726082        -0.045808
 C         1.254180        -0.038106        -0.002241
 C         2.578349        -0.816692        -0.312425
 C         3.453591         0.343356        -0.789442
 C         4.849114         0.074228        -1.227391
 O         2.693852         0.930887        -1.952012
 C         1.662361         1.269325        -0.878450
 C         2.701098         1.305073         0.261337
 O         1.830868         0.638462         1.206754
 H        -0.203904        -1.368205         0.941657
 H        -1.030760         0.046790        -0.052314
 H        -0.307025        -1.298855        -0.945905
 H         2.724487        -1.312591         0.595858
 H         2.378632        -1.588400        -1.110973
 H         5.109696         1.003059        -1.653771
 H         5.462521        -0.345156        -0.375742
 H         4.893722        -0.659119        -2.103915
 H         1.046294         2.201390        -0.999137
 H         3.275045         2.117985         0.657050
