19
Iteration:  4826charge 0 multiplicity 1
 C        -0.087855        -0.694768         0.171707
 C         1.327404        -0.039791        -0.064916
 C         2.599473        -0.873407        -0.520775
 C         3.436416         0.316210        -0.876632
 C         4.837447         0.120964        -0.954353
 O         2.606433         0.901580        -1.902051
 C         1.663885         1.231857        -0.968083
 C         2.708076         1.337941         0.246357
 O         1.809114         0.669064         1.079772
 H        -0.121080        -1.244289         1.155965
 H        -0.879993         0.002599         0.306992
 H        -0.388663        -1.268027        -0.708253
 H         2.848885        -1.659960         0.197668
 H         2.309867        -1.263115        -1.499511
 H         5.276617         1.053326        -0.650900
 H         5.399680        -0.703081        -0.422808
 H         5.256673         0.003549        -2.029922
 H         0.927881         1.874944        -1.270781
 H         3.244357         2.124528         0.766579
