19
Iteration:   552
 C        -0.014600        -0.673074         0.037809
 C         1.292542        -0.099724         0.008122
 C         2.585681        -0.906720        -0.436715
 C         3.386535         0.308031        -0.857238
 C         4.860199         0.146128        -1.099610
 O         2.645749         0.941688        -1.892169
 C         1.733529         1.271211        -0.942193
 C         2.615322         1.408114         0.268285
 O         1.768600         0.604515         1.188215
 H        -0.303538        -1.392466         0.837977
 H        -0.870500        -0.039406         0.192110
 H        -0.133665        -1.151288        -1.012911
 H         3.100512        -1.321378         0.405914
 H         2.585423        -1.729027        -1.247534
 H         5.439103         1.031623        -1.469728
 H         5.347211        -0.393952        -0.272220
 H         4.854679        -0.536915        -2.001162
 H         0.954249         1.940781        -1.402941
 H         3.225298         2.245588         0.590834
