19
Iteration:   787
 C        -0.119517        -0.585214         0.198009
 C         1.319022        -0.120418        -0.115897
 C         2.503328        -1.009968        -0.617851
 C         3.320503         0.237567        -0.834582
 C         4.910543         0.225991        -0.878343
 O         2.663982         0.913416        -1.934318
 C         1.637910         1.232714        -0.983141
 C         2.618140         1.323207         0.170270
 O         1.975756         0.660325         1.149140
 H         0.038815        -1.456726         0.812346
 H        -0.599793         0.124696         0.957264
 H        -0.853834        -0.713515        -0.673994
 H         2.758098        -1.647243         0.197168
 H         2.464031        -1.530285        -1.652104
 H         5.234867         1.288861        -1.309271
 H         5.191389         0.287222         0.125093
 H         5.591042        -0.548412        -1.352704
 H         0.885786         1.954744        -1.316430
 H         3.119434         2.245502         0.598870
