19
Iteration:  3787
 C        -0.113203        -0.628932         0.105413
 C         1.274517        -0.134831        -0.028705
 C         2.552813        -0.918492        -0.507194
 C         3.415125         0.336068        -0.739429
 C         4.879770         0.223176        -1.084213
 O         2.668492         0.876958        -1.947501
 C         1.706459         1.205756        -0.909800
 C         2.695687         1.286065         0.248525
 O         1.801840         0.683260         1.153768
 H        -0.270900        -1.378300         0.888430
 H        -0.732249         0.244307         0.483010
 H        -0.567022        -1.046033        -0.869492
 H         2.900301        -1.634572         0.226560
 H         2.282412        -1.400309        -1.441286
 H         5.468584         1.092273        -1.230208
 H         5.518995        -0.496572        -0.465882
 H         5.112345        -0.090510        -2.099225
 H         0.938383         1.955057        -1.264696
 H         3.231723         2.200435         0.553490
