19
Iteration:  1497
 C        -0.001927        -0.662312         0.186597
 C         1.272795        -0.062413        -0.173350
 C         2.532617        -0.924397        -0.512549
 C         3.376858         0.252327        -0.812507
 C         4.855416         0.215045        -0.946008
 O         2.637784         0.808259        -1.944804
 C         1.689865         1.266549        -0.985752
 C         2.653673         1.353132         0.190186
 O         1.863144         0.723982         1.156710
 H         0.051805        -1.505364         0.939945
 H        -0.571252         0.015077         0.771020
 H        -0.609817        -1.155197        -0.601391
 H         2.864485        -1.409733         0.487039
 H         2.380787        -1.813589        -1.248602
 H         5.220610         1.241967        -1.230443
 H         5.155418        -0.119748        -0.040698
 H         5.190933        -0.553718        -1.701128
 H         0.984110         2.061758        -1.399008
 H         3.109606         2.304797         0.358639
