19
Iteration:   589
 C        -0.144270        -0.692868         0.156184
 C         1.314337        -0.087900        -0.054282
 C         2.474180        -0.962326        -0.578832
 C         3.437098         0.344432        -0.754388
 C         4.954292         0.215894        -0.946313
 O         2.577324         0.919801        -1.894592
 C         1.679084         1.282979        -0.934570
 C         2.683851         1.365380         0.152943
 O         1.886106         0.582003         1.109950
 H         0.001236        -1.663501         0.589310
 H        -0.888081         0.150143         0.491610
 H        -0.426275        -0.894543        -0.833455
 H         2.845219        -1.556900         0.389720
 H         2.351853        -1.578194        -1.422121
 H         5.351123         1.047293        -1.533343
 H         5.562146         0.114999         0.010350
 H         5.141984        -0.684925        -1.549677
 H         1.003435         1.985368        -1.421625
 H         3.199591         2.300041         0.438196
