19
Iteration:  2962
 C        -0.045389        -0.730221         0.211332
 C         1.306547        -0.025070         0.041504
 C         2.484231        -0.860564        -0.495391
 C         3.365799         0.338425        -0.808610
 C         4.862513         0.066529        -0.934827
 O         2.678228         0.890194        -1.952082
 C         1.620150         1.203599        -0.978084
 C         2.676459         1.381699         0.117694
 O         1.898492         0.730152         1.048364
 H        -0.103411        -1.214307         1.158654
 H        -0.795465         0.152176         0.168915
 H        -0.151366        -1.391472        -0.716107
 H         3.029250        -1.451247         0.290611
 H         2.169001        -1.431434        -1.473014
 H         5.623417         0.855476        -0.670799
 H         5.166781        -0.687314        -0.251307
 H         5.253857        -0.457535        -1.799080
 H         0.633167         1.686046        -1.362365
 H         3.047081         2.364387         0.358548
