19
Iteration:  2581
 C        -0.114709        -0.599122         0.024922
 C         1.313954        -0.071734        -0.014354
 C         2.515623        -0.915644        -0.409087
 C         3.404637         0.215867        -0.774444
 C         4.857707         0.230064        -1.210113
 O         2.724158         0.828355        -1.846128
 C         1.713774         1.143722        -0.906215
 C         2.679273         1.397686         0.203377
 O         1.822390         0.706516         1.212225
 H        -0.365404        -1.195097         0.965806
 H        -0.767789         0.315822        -0.046943
 H        -0.546592        -1.181068        -0.875412
 H         2.999529        -1.530122         0.362539
 H         2.231940        -1.611957        -1.218262
 H         5.131543         1.279257        -1.488648
 H         5.472189        -0.274422        -0.521571
 H         4.898780        -0.461327        -2.089217
 H         0.974735         1.831676        -1.405006
 H         3.131300         2.293720         0.592206
