19
Iteration:   964
 C        -0.090907        -0.598410         0.263139
 C         1.284173        -0.110254        -0.024727
 C         2.561811        -0.911803        -0.544372
 C         3.399498         0.295397        -0.801295
 C         4.861988         0.193959        -0.847816
 O         2.597822         0.905889        -2.047565
 C         1.701952         1.272744        -1.038619
 C         2.655836         1.295877         0.149145
 O         1.880830         0.593336         1.109617
 H        -0.026637        -1.567679         0.747127
 H        -0.442512         0.163008         0.875130
 H        -0.663184        -0.704265        -0.701990
 H         3.097083        -1.621782         0.078643
 H         2.477173        -1.448616        -1.517257
 H         5.289831         1.073519        -1.421554
 H         5.264298         0.261271         0.191240
 H         5.292576        -0.705400        -1.371513
 H         0.894308         1.991205        -1.304850
 H         3.006260         2.154035         0.650539
