19
Iteration:  4927charge 0 multiplicity 1
 C        -0.073831        -0.718039         0.050870
 C         1.273694        -0.054724        -0.063932
 C         2.493620        -0.930725        -0.501104
 C         3.358889         0.328019        -0.741568
 C         4.764432         0.170978        -1.007745
 O         2.703347         0.933732        -1.926323
 C         1.624665         1.265936        -0.964397
 C         2.645745         1.325280         0.239200
 O         1.949181         0.630579         1.163933
 H         0.041441        -1.631149         0.689860
 H        -0.732206        -0.016195         0.584174
 H        -0.192235        -0.929967        -0.988797
 H         3.047460        -1.517176         0.282622
 H         2.409495        -1.378643        -1.506883
 H         5.314318         0.738390        -1.851304
 H         5.420645         0.368712        -0.102873
 H         4.986080        -0.888753        -1.240179
 H         1.104185         2.234120        -1.265734
 H         3.451592         2.187989         0.555415
