19
Iteration:   405
 C        -0.066218        -0.732235         0.048615
 C         1.329208        -0.035540        -0.007126
 C         2.470272        -0.895085        -0.432067
 C         3.437939         0.277530        -0.822622
 C         4.974073         0.173956        -1.077451
 O         2.613148         0.922712        -1.920306
 C         1.642461         1.264347        -0.966338
 C         2.665372         1.404735         0.202506
 O         1.807391         0.607554         1.214775
 H         0.043213        -1.663196         0.629869
 H        -1.017665        -0.123218         0.291517
 H        -0.353796        -1.109938        -0.916252
 H         2.959219        -1.423949         0.487097
 H         2.322393        -1.582895        -1.239331
 H         5.208226         0.981013        -1.771508
 H         5.537883         0.250943        -0.053971
 H         5.283872        -0.705911        -1.638553
 H         1.059344         1.992433        -1.510984
 H         3.130527         2.246646         0.760052
