19
Iteration:  1622charge 0 multiplicity 1
 C         0.086489        -0.693588         0.294983
 C         1.317183         0.007246        -0.073549
 C         2.459857        -0.900077        -0.536524
 C         3.393120         0.299078        -0.789274
 C         4.859439         0.137454        -0.889722
 O         2.719705         0.836786        -2.093694
 C         1.653731         1.306696        -1.075228
 C         2.558017         1.397834         0.175525
 O         1.815856         0.652828         1.171683
 H         0.407595        -1.493416         0.956546
 H        -0.637359         0.031851         0.774637
 H        -0.453434        -1.325804        -0.467755
 H         2.663987        -1.872946         0.200707
 H         2.232919        -1.419209        -1.519649
 H         5.390464         1.076191        -0.759840
 H         5.278700        -0.599768        -0.082437
 H         5.117136        -0.253531        -1.818313
 H         0.817228         1.888433        -1.373842
 H         3.022918         2.320292         0.649300
