19
Iteration:    18charge 0 multiplicity 1
 C        -0.077063        -0.665214        -0.022774
 C         1.362887        -0.147041        -0.093311
 C         2.546550        -0.970829        -0.437598
 C         3.379258         0.315685        -0.783304
 C         4.802831         0.287393        -1.118936
 O         2.716036         0.939259        -1.909008
 C         1.705099         1.296177        -0.840203
 C         2.797587         1.367256         0.175219
 O         1.689205         0.549728         1.265300
 H        -0.160150        -1.383400         0.822966
 H        -0.762759         0.169329         0.224570
 H        -0.673562        -1.109040        -0.969357
 H         2.946377        -1.673152         0.299597
 H         2.379016        -1.717620        -1.326220
 H         5.277479        -0.649968        -0.644489
 H         4.935069         0.056271        -2.199889
 H         5.346607         1.238784        -0.760388
 H         0.926099         2.058617        -1.096540
 H         3.438717         2.220860         0.497848
