19
Iteration:  3541
 C        -0.091846        -0.626497         0.097076
 C         1.288468        -0.062649         0.049852
 C         2.537352        -0.908505        -0.535284
 C         3.452549         0.230986        -0.809135
 C         4.874650         0.179858        -1.070513
 O         2.714419         0.935145        -1.940049
 C         1.620808         1.241780        -0.915374
 C         2.637157         1.341730         0.249670
 O         1.849150         0.604340         1.151346
 H        -0.282604        -1.436438         0.828440
 H        -0.836354         0.159680         0.432491
 H        -0.268898        -1.006710        -0.888589
 H         3.058130        -1.639695         0.162814
 H         2.317568        -1.417557        -1.457042
 H         5.257703         1.143860        -0.947032
 H         5.375836        -0.432546        -0.394761
 H         4.941137        -0.278182        -2.053450
 H         0.954916         2.020448        -1.296672
 H         2.981791         2.329664         0.532794
