19
Iteration:   283
 C        -0.146068        -0.743996         0.290241
 C         1.306107        -0.066693        -0.090228
 C         2.531094        -0.974707        -0.576622
 C         3.407124         0.339433        -0.843506
 C         4.974059         0.223094        -0.840957
 O         2.668788         0.920179        -1.977750
 C         1.558215         1.212909        -1.001590
 C         2.600902         1.314650         0.147446
 O         1.904320         0.717019         1.089807
 H         0.058368        -1.597215         0.973964
 H        -0.771156         0.139007         0.719458
 H        -0.623905        -1.024151        -0.638424
 H         3.174502        -1.705766         0.159241
 H         2.293746        -1.499473        -1.464509
 H         5.460569         1.101166        -0.382502
 H         5.338672        -0.779303        -0.348333
 H         5.322415         0.273104        -1.908468
 H         0.946025         1.985144        -1.393189
 H         3.193675         2.095381         0.556655
