19
Iteration:  4041charge 0 multiplicity 1
 C        -0.042401        -0.733745         0.115129
 C         1.306973        -0.052410        -0.047386
 C         2.549406        -0.889383        -0.501371
 C         3.392140         0.348895        -0.834169
 C         4.870266         0.086115        -0.955928
 O         2.553946         0.938818        -2.005651
 C         1.753800         1.232307        -0.918985
 C         2.690732         1.367265         0.171892
 O         1.788313         0.650207         1.166172
 H         0.226902        -1.239021         0.976855
 H        -0.720520         0.087799         0.415205
 H        -0.297500        -1.156056        -0.814774
 H         3.091724        -1.415006         0.239952
 H         2.349746        -1.492834        -1.322937
 H         5.398180         0.778531        -1.619346
 H         5.261780         0.270710        -0.033239
 H         5.167561        -0.906807        -1.282851
 H         1.042101         1.983196        -1.114308
 H         3.087770         2.194389         0.722615
