19
Iteration:   875charge 0 multiplicity 1
 C        -0.059966        -0.670645         0.010432
 C         1.321031        -0.032768         0.032284
 C         2.531512        -0.909861        -0.447176
 C         3.432725         0.322758        -0.801250
 C         4.861349         0.067979        -1.153760
 O         2.696868         0.825252        -1.906915
 C         1.662343         1.262722        -0.989164
 C         2.618395         1.455651         0.320988
 O         1.801192         0.662271         1.232836
 H        -0.265266        -1.266609         0.871895
 H        -0.849486         0.037171        -0.136303
 H        -0.204729        -1.465653        -0.796165
 H         3.007203        -1.311544         0.394592
 H         2.689659        -1.537216        -1.386206
 H         5.371986         1.155757        -1.257408
 H         5.420158        -0.585618        -0.593074
 H         4.897184        -0.212463        -2.257918
 H         0.851988         1.889727        -1.396446
 H         3.045409         2.382499         0.775905
