19
Iteration:  3357
 C        -0.085604        -0.594274         0.176971
 C         1.341290        -0.128116        -0.060306
 C         2.494195        -0.972865        -0.416183
 C         3.388665         0.313842        -0.847334
 C         4.840766         0.283639        -1.006446
 O         2.691869         0.917446        -1.906295
 C         1.633811         1.268610        -0.980187
 C         2.664481         1.262876         0.146555
 O         1.888553         0.585146         1.063865
 H        -0.169270        -1.290974         1.030379
 H        -0.556647         0.336055         0.573334
 H        -0.465924        -0.791670        -0.786205
 H         2.728588        -1.634239         0.478152
 H         2.493862        -1.725959        -1.219056
 H         5.176432         1.132073        -0.458101
 H         5.353435        -0.635098        -0.454298
 H         5.242188         0.150194        -2.070351
 H         0.850467         1.914975        -1.319482
 H         3.073508         2.131789         0.631639
