19
Iteration:  1520
 C        -0.074100        -0.651958         0.110094
 C         1.264703        -0.060409         0.028008
 C         2.481962        -0.931000        -0.352260
 C         3.397362         0.265460        -0.737347
 C         4.930830         0.294248        -1.055546
 O         2.674368         0.841197        -2.031831
 C         1.638833         1.197569        -0.934573
 C         2.709223         1.344698         0.164413
 O         1.863104         0.658445         1.083043
 H        -0.432657        -1.522370         0.703586
 H        -0.818780         0.088916         0.421498
 H        -0.283294        -0.909107        -0.915323
 H         2.796323        -1.479972         0.677479
 H         2.245728        -1.710686        -1.103660
 H         5.113604         1.175528        -1.681325
 H         5.524112         0.242137        -0.215797
 H         5.184328        -0.619851        -1.665739
 H         0.860854         1.998738        -1.216262
 H         3.369629         2.073951         0.590796
