19
Iteration:  4563charge 0 multiplicity 1
 C        -0.123094        -0.535322         0.081339
 C         1.316725        -0.128140        -0.040691
 C         2.549975        -0.971518        -0.467545
 C         3.424649         0.326705        -0.683838
 C         4.949614         0.307048        -1.133050
 O         2.612799         0.759347        -1.970609
 C         1.725524         1.162474        -0.886848
 C         2.672905         1.359639         0.179374
 O         1.794452         0.641820         1.192373
 H        -0.198797        -0.899460         1.114691
 H        -0.768465         0.402123        -0.094846
 H        -0.422598        -1.287276        -0.694167
 H         2.945367        -1.653463         0.289485
 H         2.385029        -1.567216        -1.393556
 H         5.383547         1.282822        -0.771101
 H         5.436818        -0.531210        -0.693980
 H         4.811422         0.261185        -2.209300
 H         0.909994         1.855569        -1.072361
 H         3.148827         2.295232         0.487121
