19
Iteration:  1562
 C        -0.016108        -0.570243         0.029539
 C         1.405282        -0.104750         0.017719
 C         2.588665        -0.918386        -0.377090
 C         3.391031         0.349817        -0.725899
 C         4.867446         0.194014        -1.077230
 O         2.549514         0.777496        -1.935154
 C         1.656990         1.212246        -0.945986
 C         2.661797         1.364783         0.193943
 O         1.827273         0.646626         1.120185
 H        -0.437017        -1.231029         0.842164
 H        -0.664695         0.288767        -0.049464
 H        -0.133096        -0.952512        -1.006557
 H         2.971515        -1.349924         0.567341
 H         2.534234        -1.614160        -1.260876
 H         5.143691         1.025733        -1.800471
 H         5.564453         0.209846        -0.319176
 H         4.903042        -0.780958        -1.675396
 H         0.764843         1.868237        -1.210159
 H         3.005332         2.251363         0.668133
