19
Iteration:  3758
 C         0.018576        -0.674175        -0.026132
 C         1.326431         0.005461        -0.051163
 C         2.520587        -0.908961        -0.408815
 C         3.363048         0.312605        -0.776895
 C         4.856403         0.135809        -1.216289
 O         2.681300         0.884884        -1.853684
 C         1.637007         1.232837        -0.855688
 C         2.638550         1.413545         0.282181
 O         1.825817         0.618040         1.160749
 H        -0.020628        -1.398025         0.767555
 H        -0.814788         0.028030         0.135511
 H        -0.319650        -1.148840        -0.885057
 H         2.641945        -1.424511         0.567600
 H         2.346234        -1.713396        -1.093543
 H         5.685036         0.913400        -1.011600
 H         5.371926        -0.564874        -0.628544
 H         4.989767        -0.312017        -2.246496
 H         0.908813         1.838940        -1.434329
 H         3.112572         2.369276         0.646839
