19
Iteration:  4728
 C        -0.197971        -0.581836         0.022167
 C         1.259203        -0.108865        -0.037790
 C         2.523384        -1.015326        -0.378826
 C         3.414686         0.307257        -0.804425
 C         4.898264         0.309135        -1.048764
 O         2.659812         0.862647        -1.961937
 C         1.626979         1.334372        -0.962468
 C         2.701570         1.262917         0.189688
 O         1.938855         0.581968         1.232978
 H        -0.136739        -1.468748         0.729763
 H        -0.733412         0.151601         0.495004
 H        -0.626961        -0.714823        -0.957332
 H         3.022498        -1.579293         0.413988
 H         2.475313        -1.606205        -1.299857
 H         5.255423         1.136186        -1.625479
 H         5.550089         0.199166        -0.154841
 H         5.148808        -0.679153        -1.598236
 H         0.919219         1.946777        -1.359842
 H         3.176355         2.240810         0.360716
