19
Iteration:  2538
 C        -0.041411        -0.674099         0.038579
 C         1.354703        -0.023319        -0.040995
 C         2.563810        -0.877430        -0.413914
 C         3.345703         0.325006        -0.873992
 C         4.765879         0.046897        -1.072803
 O         2.641674         0.883858        -1.943671
 C         1.687007         1.293114        -0.907882
 C         2.726704         1.414774         0.237298
 O         1.835317         0.622942         1.179195
 H        -0.033803        -1.129509         1.096353
 H        -0.943621         0.009358        -0.136137
 H        -0.179929        -1.655697        -0.580086
 H         2.965004        -1.247963         0.542693
 H         2.374945        -1.628540        -1.308049
 H         5.213295         1.046408        -1.281945
 H         5.229748        -0.177887        -0.150518
 H         4.978628        -0.792363        -1.813421
 H         0.884790         2.082153        -1.272098
 H         3.392376         2.165594         0.629257
