19
Iteration:   872
 C        -0.054647        -0.687243         0.008931
 C         1.343213        -0.032144         0.006797
 C         2.522218        -0.907001        -0.419738
 C         3.409434         0.334476        -0.781808
 C         4.849493         0.091433        -1.167019
 O         2.693094         0.845652        -1.915678
 C         1.685713         1.251967        -0.999263
 C         2.614411         1.444090         0.313966
 O         1.800987         0.657935         1.240044
 H        -0.322577        -1.312818         0.847812
 H        -0.877828         0.113238        -0.127146
 H        -0.256766        -1.418750        -0.691950
 H         3.069293        -1.490232         0.410119
 H         2.601352        -1.484278        -1.341257
 H         5.488145         1.032728        -1.274054
 H         5.453637        -0.636469        -0.562214
 H         4.905746        -0.266192        -2.206489
 H         0.884850         1.870996        -1.414822
 H         3.052254         2.425945         0.728557
