19
Iteration:  3224
 C        -0.100263        -0.586936         0.059285
 C         1.296640        -0.087405        -0.047213
 C         2.596220        -1.012678        -0.309612
 C         3.383764         0.267255        -0.764340
 C         4.820657         0.231112        -1.166605
 O         2.678712         0.914794        -1.914717
 C         1.712586         1.179002        -0.918475
 C         2.725043         1.371549         0.222356
 O         1.808003         0.636461         1.112447
 H        -0.308209        -1.534940         0.500762
 H        -0.904918         0.227621         0.309534
 H        -0.268339        -0.704705        -1.021921
 H         2.895100        -1.340710         0.641823
 H         2.413026        -1.738097        -1.145116
 H         5.008175         1.113780        -1.987521
 H         5.516068         0.295345        -0.351060
 H         4.983624        -0.779255        -1.626492
 H         0.833510         1.928369        -1.040025
 H         3.174703         2.203035         0.745863
