19
Iteration:  4850
 C        -0.075895        -0.591698         0.113019
 C         1.296300        -0.076164        -0.064725
 C         2.417616        -1.011591        -0.512673
 C         3.431827         0.335686        -0.764715
 C         4.946700         0.257390        -0.991824
 O         2.675247         0.900375        -1.941460
 C         1.629975         1.218514        -0.982041
 C         2.628257         1.280034         0.173585
 O         1.907491         0.612518         1.194960
 H        -0.248997        -1.414540         0.857986
 H        -0.765598         0.118307         0.555976
 H        -0.368439        -0.753766        -0.902467
 H         2.696157        -1.479869         0.481104
 H         2.352017        -1.653358        -1.389408
 H         5.511940         1.239330        -1.034714
 H         5.643699        -0.413687        -0.383888
 H         5.119518        -0.192595        -2.012107
 H         0.746970         1.859797        -1.218137
 H         3.036261         2.370696         0.434705
