19
Iteration:   603charge 0 multiplicity 1
 C        -0.107608        -0.663752         0.173068
 C         1.241304        -0.051102        -0.020783
 C         2.530182        -0.893170        -0.550144
 C         3.378209         0.234432        -0.879986
 C         4.907788         0.244175        -0.918939
 O         2.694150         0.894944        -2.000571
 C         1.644635         1.278879        -0.959687
 C         2.669274         1.305160         0.215734
 O         1.904268         0.593142         1.131874
 H        -0.204989        -1.578850         0.732028
 H        -0.715510        -0.095771         0.770764
 H        -0.624939        -0.896837        -0.830729
 H         2.907663        -1.564049         0.176026
 H         2.298452        -1.429800        -1.581511
 H         5.177613         1.265213        -1.317331
 H         5.210510         0.349356         0.072766
 H         5.441826        -0.617155        -1.364505
 H         0.880004         2.029889        -1.147884
 H         3.235019         2.106233         0.762872
