19
Iteration:  2686charge 0 multiplicity 1
 C        -0.088553        -0.660045         0.272732
 C         1.260687        -0.015431        -0.105832
 C         2.535745        -0.928841        -0.455631
 C         3.410053         0.331751        -0.796326
 C         4.915665         0.071150        -0.971653
 O         2.653272         0.894793        -1.984010
 C         1.733683         1.319413        -1.000795
 C         2.677305         1.357494         0.097375
 O         1.769471         0.638839         1.092381
 H         0.268601        -1.559974         0.826038
 H        -0.680281        -0.144012         0.970796
 H        -0.657650        -1.101240        -0.513852
 H         2.883268        -1.329109         0.599362
 H         2.308451        -1.580420        -1.304287
 H         5.446716         0.928708        -1.517937
 H         5.443867        -0.035321         0.057806
 H         5.126832        -0.764769        -1.605599
 H         0.923114         1.929987        -1.305204
 H         3.176839         2.252731         0.660506
