19
Iteration:   540
 C        -0.108147        -0.739659         0.014034
 C         1.326227        -0.097556        -0.030335
 C         2.553211        -0.978632        -0.318815
 C         3.456362         0.337504        -0.755291
 C         4.931951         0.161116        -1.171675
 O         2.631974         0.961104        -1.927979
 C         1.660179         1.319849        -0.905543
 C         2.666183         1.362640         0.217162
 O         1.782313         0.658872         1.144435
 H        -0.141219        -1.437508         0.867846
 H        -0.735881         0.074257         0.044093
 H        -0.308033        -1.386854        -0.950321
 H         2.816864        -1.560331         0.486323
 H         2.325151        -1.578883        -1.297883
 H         5.606023         1.083589        -1.232880
 H         5.376127        -0.487193        -0.443355
 H         4.948365        -0.443364        -2.117424
 H         0.847048         2.062913        -1.036969
 H         3.146444         2.212878         0.717314
