19
Iteration:  3651charge 0 multiplicity 1
 C        -0.081209        -0.502538         0.220457
 C         1.305913        -0.069655        -0.127653
 C         2.501584        -0.938629        -0.589347
 C         3.324748         0.285741        -0.888899
 C         4.951301         0.291680        -0.892271
 O         2.656487         0.948390        -2.020253
 C         1.697995         1.185267        -0.902572
 C         2.662498         1.231741         0.192585
 O         1.837761         0.509770         1.172601
 H         0.103470        -1.420201         0.872752
 H        -0.729896         0.180124         0.803712
 H        -0.466149        -0.973390        -0.655099
 H         2.887617        -1.403920         0.373485
 H         2.259945        -1.501146        -1.510314
 H         5.277007         1.181934        -1.410131
 H         5.240000         0.203495         0.165692
 H         5.292906        -0.594814        -1.461069
 H         1.001797         1.900790        -1.267081
 H         3.212249         2.124991         0.586132
