19
Iteration:  4375
 C        -0.045240        -0.657926         0.128006
 C         1.283948        -0.046755         0.021784
 C         2.532714        -0.917157        -0.447581
 C         3.411397         0.306328        -0.867746
 C         5.009934         0.205282        -1.051022
 O         2.665797         0.886039        -1.957266
 C         1.543880         1.178215        -0.938280
 C         2.672384         1.310638         0.122188
 O         1.777257         0.729110         1.182586
 H        -0.007925        -1.282817         1.060282
 H        -1.053711        -0.044133         0.114786
 H        -0.231800        -1.308671        -0.766601
 H         2.873400        -1.531553         0.416197
 H         2.345331        -1.565735        -1.293831
 H         5.690348         1.033134        -0.755214
 H         5.432809        -0.631454        -0.432854
 H         5.361764        -0.068244        -2.071851
 H         0.687810         1.896014        -1.113240
 H         3.243181         1.960352         0.717744
