19
Iteration:  3681charge 0 multiplicity 1
 C        -0.141212        -0.584460         0.262923
 C         1.281177        -0.150633        -0.100304
 C         2.484521        -0.989183        -0.583462
 C         3.341413         0.314161        -0.773427
 C         4.907543         0.273513        -0.903949
 O         2.659622         0.960109        -1.935487
 C         1.720160         1.272245        -0.957672
 C         2.675727         1.308971         0.146988
 O         1.919766         0.536810         1.056087
 H        -0.124512        -1.448324         0.886712
 H        -0.866722         0.175629         0.702109
 H        -0.546522        -0.989345        -0.631968
 H         2.828814        -1.757353         0.169053
 H         2.311384        -1.413874        -1.556364
 H         5.379451         1.281354        -1.387812
 H         5.517142         0.178108         0.012847
 H         5.179622        -0.682894        -1.474610
 H         0.956144         2.054811        -1.323702
 H         3.206842         2.149159         0.666819
