19
Iteration:  1565
 C         0.005903        -0.585597         0.032212
 C         1.390582        -0.106467         0.008001
 C         2.566142        -0.909102        -0.369797
 C         3.366896         0.364124        -0.733631
 C         4.885236         0.191214        -1.084211
 O         2.541259         0.802451        -1.935936
 C         1.700820         1.213609        -0.966947
 C         2.646104         1.343152         0.165980
 O         1.826866         0.636533         1.148461
 H        -0.463022        -1.204055         0.799255
 H        -0.717651         0.300798         0.051884
 H        -0.168751        -1.034784        -0.924869
 H         3.001372        -1.368399         0.682540
 H         2.521267        -1.580173        -1.174606
 H         5.111429         0.966398        -1.751272
 H         5.609305         0.143109        -0.254671
 H         4.963931        -0.728801        -1.686901
 H         0.865833         1.906633        -1.274921
 H         2.987666         2.275889         0.608049
