19
Iteration:  1677
 C        -0.040889        -0.601145         0.142568
 C         1.329670        -0.042000        -0.008969
 C         2.505793        -0.895514        -0.455733
 C         3.440000         0.260006        -0.846922
 C         4.875992         0.228454        -1.009949
 O         2.591426         0.858311        -1.964873
 C         1.671901         1.166325        -1.015639
 C         2.664394         1.345866         0.209700
 O         1.850995         0.630652         1.144064
 H        -0.077047        -1.314852         0.962671
 H        -0.736056         0.248237         0.267726
 H        -0.319754        -1.050061        -0.865752
 H         2.936055        -1.453138         0.485859
 H         2.251614        -1.694822        -1.237507
 H         5.277980         1.253873        -0.973609
 H         5.269261        -0.184342        -0.034063
 H         5.268709        -0.314068        -1.809749
 H         0.826951         1.717466        -1.320722
 H         3.202584         2.258208         0.564282
