19
Iteration:  2393charge 0 multiplicity 1
 C        -0.128888        -0.725797        -0.046582
 C         1.244636        -0.042051        -0.035430
 C         2.582713        -0.840117        -0.314486
 C         3.437610         0.328199        -0.791977
 C         4.848455         0.083353        -1.238287
 O         2.688797         0.923841        -1.941480
 C         1.654624         1.295401        -0.874676
 C         2.716948         1.323787         0.267241
 O         1.835044         0.641999         1.222364
 H        -0.166653        -1.428982         0.869909
 H        -0.856932         0.078744        -0.078844
 H        -0.308778        -1.278750        -0.989056
 H         2.720991        -1.364333         0.744767
 H         2.359676        -1.570035        -1.041979
 H         5.218717         1.039818        -1.637846
 H         5.544147        -0.335454        -0.456965
 H         4.862750        -0.656316        -1.981395
 H         0.954518         2.061821        -1.032805
 H         3.360977         2.166991         0.616054
