19
Iteration:  2736charge 0 multiplicity 1
 C        -0.097172        -0.575248        -0.044060
 C         1.324969        -0.013725         0.022695
 C         2.576915        -0.910901        -0.350055
 C         3.431608         0.278832        -0.721604
 C         4.909837         0.214199        -1.124489
 O         2.533548         0.705212        -1.932554
 C         1.654072         1.157769        -0.896294
 C         2.692336         1.382395         0.191585
 O         1.907982         0.701250         1.175807
 H        -0.613814        -0.984676         0.817984
 H        -0.693715         0.387588        -0.337458
 H        -0.159524        -1.296097        -0.907462
 H         2.697677        -1.506719         0.478129
 H         2.364037        -1.419560        -1.318181
 H         5.244641         1.167833        -1.449077
 H         5.531979        -0.177975        -0.331131
 H         5.074249        -0.423109        -2.056582
 H         0.872308         1.891566        -1.195627
 H         3.051980         2.287241         0.574266
