19
Iteration:   753charge 0 multiplicity 1
 C        -0.107501        -0.582428         0.115399
 C         1.239707        -0.071522        -0.100974
 C         2.609714        -0.915787        -0.493994
 C         3.410375         0.315009        -0.794313
 C         4.935064         0.157860        -1.004168
 O         2.619719         0.892135        -1.928759
 C         1.593552         1.222548        -0.966467
 C         2.646515         1.347332         0.207515
 O         1.890894         0.577187         1.163191
 H        -0.026926        -1.458123         0.735925
 H        -0.710253         0.269521         0.614713
 H        -0.576885        -0.896214        -0.800162
 H         3.062110        -1.453918         0.395159
 H         2.591970        -1.536285        -1.381504
 H         5.311592         1.171421        -1.344360
 H         5.323488        -0.046288        -0.011403
 H         5.246814        -0.635094        -1.714731
 H         0.868427         1.953259        -1.308477
 H         3.150709         2.278648         0.597450
