19
Iteration:  2493charge 0 multiplicity 1
 C        -0.087633        -0.637339         0.351161
 C         1.218068        -0.040107        -0.073313
 C         2.472506        -0.918531        -0.624394
 C         3.436586         0.275720        -0.881528
 C         4.879697         0.171276        -0.889324
 O         2.706138         0.882281        -1.996642
 C         1.653428         1.271906        -1.009118
 C         2.688325         1.359449         0.201986
 O         1.880446         0.616328         1.106990
 H         0.131283        -1.601832         0.998236
 H        -0.704058         0.147055         0.820290
 H        -0.550241        -1.021460        -0.643726
 H         2.868603        -1.786522         0.036243
 H         2.310293        -1.221574        -1.680699
 H         5.448224         1.146996        -0.941093
 H         5.146197        -0.206122         0.106882
 H         5.232915        -0.562589        -1.610422
 H         0.772454         1.895473        -1.277639
 H         3.171278         2.281083         0.603964
