19
Iteration:  1805charge 0 multiplicity 1
 C         0.003489        -0.655966         0.312918
 C         1.295234        -0.100312        -0.073246
 C         2.490855        -0.946381        -0.574689
 C         3.383184         0.260014        -0.804215
 C         4.890631         0.229739        -0.795205
 O         2.616892         0.959080        -2.045338
 C         1.635973         1.311205        -1.023223
 C         2.735052         1.261790         0.117922
 O         1.811358         0.647093         1.064667
 H         0.215641        -1.404605         1.124556
 H        -0.582407         0.204383         0.766166
 H        -0.481196        -1.162764        -0.509773
 H         2.858983        -1.653704         0.278311
 H         2.221152        -1.449868        -1.428695
 H         5.395233         1.177799        -0.924074
 H         5.352868        -0.452001         0.026642
 H         5.090525        -0.334138        -1.760256
 H         0.707762         1.928953        -1.281131
 H         3.494957         1.966211         0.554646
