19
Iteration:  3500
 C        -0.097647        -0.537518         0.264479
 C         1.285858        -0.015530        -0.099472
 C         2.488927        -0.904998        -0.565174
 C         3.369412         0.282945        -0.835750
 C         4.932038         0.272499        -0.824937
 O         2.589646         0.914348        -2.029082
 C         1.667762         1.276339        -0.950206
 C         2.656575         1.267028         0.132204
 O         1.973226         0.423771         1.087184
 H        -0.045618        -1.461974         0.977301
 H        -0.930628         0.160267         0.578753
 H        -0.374648        -0.916534        -0.733723
 H         2.662559        -1.691892         0.227683
 H         2.350598        -1.412320        -1.524097
 H         5.192982         1.290654        -1.191661
 H         5.293979         0.251539         0.351974
 H         5.384592        -0.558096        -1.494631
 H         0.920515         2.003234        -1.078921
 H         3.249159         2.065732         0.584407
