19
Iteration:  3426charge 0 multiplicity 1
 C        -0.062795        -0.736480        -0.042556
 C         1.276903        -0.072740        -0.075698
 C         2.550543        -0.849538        -0.333737
 C         3.357827         0.320540        -0.699161
 C         4.829103         0.049263        -1.226007
 O         2.654682         0.972400        -1.931691
 C         1.674879         1.254637        -0.885574
 C         2.722975         1.377891         0.261752
 O         1.843706         0.652285         1.164584
 H         0.023517        -1.524710         0.732213
 H        -0.799147        -0.086879         0.328554
 H        -0.269357        -1.149686        -1.022733
 H         2.897634        -1.374903         0.564657
 H         2.518130        -1.554609        -1.178052
 H         5.215288         1.049359        -1.365395
 H         5.414392        -0.228263        -0.358989
 H         4.950759        -0.695910        -2.017771
 H         1.010254         2.072182        -1.098271
 H         3.211358         2.216622         0.793601
