19
Iteration:  2563charge 0 multiplicity 1
 C        -0.109648        -0.599333        -0.008055
 C         1.308371        -0.034020        -0.024308
 C         2.553784        -0.972640        -0.316774
 C         3.465138         0.310801        -0.727239
 C         4.935868         0.096528        -1.238723
 O         2.599067         0.886252        -1.910969
 C         1.648201         1.233459        -0.885800
 C         2.683399         1.368592         0.240036
 O         1.817846         0.678814         1.165235
 H        -0.296856        -1.089682         0.898996
 H        -0.966412         0.107829        -0.246442
 H        -0.068681        -1.432272        -0.683916
 H         2.737879        -1.483506         0.604349
 H         2.533973        -1.490653        -1.366726
 H         5.340177         1.049303        -1.474236
 H         5.681993        -0.186582        -0.459175
 H         4.928023        -0.633715        -2.108821
 H         0.752307         1.852307        -1.197898
 H         3.206955         2.263779         0.594363
