19
Iteration:  2992charge 0 multiplicity 1
 C         0.014704        -0.698717         0.309001
 C         1.270460         0.018310        -0.144656
 C         2.501677        -0.912784        -0.494473
 C         3.324818         0.297954        -0.780859
 C         4.855835         0.095894        -0.856209
 O         2.624289         0.896248        -2.057849
 C         1.678351         1.322484        -1.069932
 C         2.724729         1.334471         0.166150
 O         1.833615         0.647065         1.080250
 H         0.435036        -1.394231         1.090072
 H        -0.564012         0.032958         0.854263
 H        -0.586343        -1.206861        -0.498328
 H         2.853917        -1.485825         0.363523
 H         2.373388        -1.547999        -1.315057
 H         5.549639         0.996041        -0.958360
 H         5.307734        -0.249106         0.105485
 H         5.174389        -0.544293        -1.614694
 H         0.785264         1.787802        -1.505133
 H         3.234562         2.267490         0.648137
