19
Iteration:  1262charge 0 multiplicity 1
 C        -0.131516        -0.646797         0.171756
 C         1.320286        -0.121895        -0.023023
 C         2.549423        -0.894738        -0.459806
 C         3.368547         0.294057        -0.812727
 C         4.805508         0.176039        -0.943740
 O         2.719075         0.875479        -1.967185
 C         1.666366         1.264633        -1.036672
 C         2.649274         1.357232         0.083587
 O         1.894204         0.660213         1.182048
 H        -0.034547        -1.115987         1.179793
 H        -0.882825         0.225473         0.330427
 H        -0.431955        -1.454717        -0.486196
 H         3.140499        -1.457955         0.360465
 H         2.376696        -1.544775        -1.412290
 H         5.277550         1.085774        -0.782664
 H         5.394352        -0.586458        -0.325208
 H         5.001997        -0.006629        -1.971506
 H         0.749472         1.730096        -1.370807
 H         3.206250         2.248664         0.376064
