19
Iteration:  1355charge 0 multiplicity 1
 C        -0.139774        -0.604489         0.056055
 C         1.311906        -0.099038        -0.063446
 C         2.639405        -0.861132        -0.400517
 C         3.442457         0.383766        -0.810025
 C         4.861359         0.168903        -1.026979
 O         2.528275         0.764055        -1.983293
 C         1.736202         1.195997        -0.912280
 C         2.704913         1.358158         0.216213
 O         1.809952         0.677513         1.168776
 H        -0.038243        -1.501374         0.739966
 H        -0.689770         0.142881         0.565738
 H        -0.538214        -0.950363        -0.948919
 H         2.949475        -1.411849         0.469991
 H         2.667860        -1.523155        -1.323246
 H         5.406062         0.933436        -1.759847
 H         5.306515         0.252443        -0.099314
 H         5.107602        -0.884174        -1.405769
 H         0.947888         1.890770        -1.354509
 H         3.128953         2.314864         0.531290
