19
Iteration:  4164
 C        -0.007630        -0.666732         0.219183
 C         1.395895        -0.092226        -0.118181
 C         2.526911        -0.934470        -0.548805
 C         3.377156         0.318430        -0.821907
 C         4.926136         0.115969        -0.887278
 O         2.605259         0.878076        -1.991937
 C         1.600154         1.206437        -0.938863
 C         2.598722         1.445555         0.173021
 O         1.823764         0.698905         1.090847
 H         0.233579        -1.561741         0.930063
 H        -0.486378         0.142149         0.726698
 H        -0.498808        -1.150634        -0.648060
 H         2.924597        -1.546489         0.223842
 H         2.399999        -1.545407        -1.460331
 H         5.381030         1.101804        -0.587044
 H         5.213346        -0.702161        -0.176641
 H         5.472269        -0.210101        -1.789201
 H         0.817470         1.956622        -1.263660
 H         3.007580         2.407857         0.617652
