19
Iteration:  1043
 C        -0.034407        -0.674910         0.039738
 C         1.267285        -0.058087        -0.095119
 C         2.555813        -0.916625        -0.326468
 C         3.434659         0.226953        -0.719535
 C         4.862493         0.148110        -1.146402
 O         2.618453         0.947523        -1.929456
 C         1.693244         1.218354        -0.966253
 C         2.652776         1.399348         0.137049
 O         1.830849         0.668336         1.225536
 H        -0.251251        -1.277590         1.000129
 H        -0.788210         0.152913        -0.013703
 H        -0.275538        -1.194180        -0.877687
 H         2.914550        -1.412676         0.643577
 H         2.428322        -1.575204        -1.136618
 H         5.304249         1.111452        -1.209357
 H         5.557796        -0.532624        -0.372126
 H         5.024822        -0.416392        -2.074661
 H         0.750607         1.796447        -1.092422
 H         3.304442         2.216288         0.413415
