19
Iteration:  4140charge 0 multiplicity 1
 C        -0.126683        -0.664316         0.187244
 C         1.298736        -0.071509        -0.018119
 C         2.501299        -0.904485        -0.490420
 C         3.373913         0.371319        -0.734317
 C         4.889864         0.252346        -0.924317
 O         2.685935         0.825902        -1.960465
 C         1.602966         1.208456        -1.030308
 C         2.632737         1.329153         0.117492
 O         1.968674         0.627943         1.136361
 H        -0.101057        -1.658784         0.708565
 H        -0.769579         0.114881         0.653587
 H        -0.420819        -0.921298        -0.859769
 H         2.846773        -1.523902         0.334794
 H         2.334390        -1.514504        -1.375678
 H         5.492394         1.211826        -0.795547
 H         5.304345        -0.564767        -0.407259
 H         5.011782        -0.060260        -1.961425
 H         0.959480         1.907491        -1.655716
 H         3.139792         2.330509         0.351251
