19
Iteration:  1784charge 0 multiplicity 1
 C        -0.029549        -0.707462         0.260448
 C         1.279216        -0.078420        -0.104295
 C         2.444859        -0.947548        -0.589259
 C         3.395062         0.270161        -0.870584
 C         4.859497         0.142787        -0.904660
 O         2.666520         0.932523        -1.920661
 C         1.655796         1.211758        -0.980761
 C         2.653389         1.439348         0.122052
 O         1.924062         0.673779         1.130988
 H         0.177608        -1.582123         0.898414
 H        -0.692328         0.083364         0.696352
 H        -0.462393        -1.203306        -0.646600
 H         2.864375        -1.561016         0.296447
 H         2.361368        -1.463260        -1.440685
 H         5.313363         1.142157        -1.145567
 H         5.000173        -0.106024         0.247306
 H         5.276931        -0.671884        -1.536836
 H         0.986747         2.053226        -1.251341
 H         2.969897         2.478169         0.405916
