19
Iteration:  4558charge 0 multiplicity 1
 C        -0.152296        -0.554267         0.074191
 C         1.300539        -0.128395        -0.061684
 C         2.587922        -0.934114        -0.458404
 C         3.399246         0.327018        -0.661397
 C         4.929911         0.276718        -1.126617
 O         2.604859         0.746379        -1.973311
 C         1.734100         1.175241        -0.849177
 C         2.667760         1.389544         0.162976
 O         1.813099         0.625395         1.158316
 H        -0.084092        -0.966986         1.108876
 H        -0.646553         0.396495         0.017792
 H        -0.524390        -1.272576        -0.628707
 H         2.867629        -1.632008         0.358025
 H         2.476826        -1.417773        -1.420070
 H         5.326057         1.254331        -0.832671
 H         5.576482        -0.524239        -0.610573
 H         4.890777         0.303196        -2.241405
 H         0.910724         1.892634        -1.132663
 H         3.252988         2.224108         0.555710
