19
Iteration:  2340
 C        -0.058759        -0.614645         0.279398
 C         1.268075        -0.050480        -0.098000
 C         2.467040        -0.893919        -0.646700
 C         3.387561         0.308690        -0.810944
 C         4.886124         0.158155        -0.890051
 O         2.642896         0.959321        -1.950404
 C         1.688822         1.245584        -0.954240
 C         2.708129         1.319012         0.168192
 O         1.891605         0.539065         1.119206
 H        -0.041096        -1.048282         1.254282
 H        -0.866287         0.046206         0.340955
 H        -0.285670        -1.267448        -0.592082
 H         2.915104        -1.720548         0.095551
 H         2.223644        -1.387640        -1.541759
 H         5.366311         1.162114        -1.089847
 H         5.106338        -0.454840         0.012522
 H         5.143542        -0.387204        -1.782447
 H         0.905185         1.902836        -1.217145
 H         3.161640         2.347746         0.335575
