19
Iteration:  4290charge 0 multiplicity 1
 C        -0.067342        -0.652556         0.094393
 C         1.337148        -0.079945        -0.044232
 C         2.550940        -0.978352        -0.483746
 C         3.420334         0.341229        -0.776331
 C         4.881947         0.261280        -1.026530
 O         2.607671         0.775229        -1.875982
 C         1.664442         1.251243        -0.937797
 C         2.691876         1.358591         0.108587
 O         1.828843         0.677019         1.168235
 H        -0.130682        -1.549220         0.591766
 H        -0.656510         0.170032         0.623886
 H        -0.479713        -0.862927        -0.901909
 H         2.941465        -1.803669         0.183446
 H         2.391380        -1.359269        -1.534218
 H         5.264140         1.226295        -1.518571
 H         5.230496         0.151630        -0.012277
 H         5.072172        -0.688183        -1.545210
 H         0.882780         2.005374        -1.288816
 H         3.091454         2.288562         0.608154
