19
Iteration:  3068charge 0 multiplicity 1
 C        -0.105625        -0.513875        -0.069591
 C         1.334647        -0.054621        -0.099997
 C         2.679700        -0.954684        -0.328918
 C         3.371029         0.270897        -0.807882
 C         4.854174         0.183760        -1.116993
 O         2.510812         0.765450        -1.927221
 C         1.667808         1.200486        -0.879680
 C         2.677381         1.388942         0.254423
 O         1.876673         0.676422         1.194550
 H        -0.150021        -1.401711         0.604483
 H        -0.764114         0.276489         0.195480
 H        -0.426710        -0.906339        -1.059166
 H         2.906583        -1.350379         0.655478
 H         2.534427        -1.792799        -0.917237
 H         5.348182         1.050839        -1.758113
 H         5.385719         0.298807        -0.104938
 H         5.173926        -0.669544        -1.704331
 H         0.899393         1.890898        -1.202127
 H         3.480587         2.115689         0.689552
