19
Iteration:  2360
 C         0.007593        -0.695232         0.108038
 C         1.374089        -0.068564        -0.145307
 C         2.501268        -0.956092        -0.545512
 C         3.416570         0.284892        -0.789607
 C         4.877450         0.065732        -1.059106
 O         2.661284         0.958482        -1.888721
 C         1.600695         1.328269        -0.885006
 C         2.632769         1.403467         0.242392
 O         1.851061         0.664093         1.149544
 H        -0.160644        -0.919774         1.206094
 H        -0.756786         0.033373         0.185311
 H        -0.416743        -1.472463        -0.520304
 H         2.531868        -1.822817         0.301366
 H         2.259415        -1.461730        -1.455780
 H         5.285006         1.023304        -1.366909
 H         5.284827        -0.353688        -0.092016
 H         4.954297        -0.496973        -1.921526
 H         0.835083         1.938491        -1.213374
 H         3.408104         2.063764         0.682978
