19
Iteration:  2613charge 0 multiplicity 1
 C        -0.111283        -0.572057         0.142235
 C         1.300805         0.013292        -0.100314
 C         2.519490        -0.936104        -0.431426
 C         3.412447         0.199086        -0.807069
 C         4.899105         0.235425        -0.953024
 O         2.557203         0.831552        -1.968473
 C         1.687059         1.210701        -0.938334
 C         2.741953         1.369826         0.134824
 O         1.874770         0.597891         1.100635
 H        -0.034655        -1.450212         0.864521
 H        -0.537791         0.184633         0.818006
 H        -0.749946        -0.923884        -0.733847
 H         2.900172        -1.285932         0.526240
 H         2.327816        -1.539133        -1.287117
 H         5.449007         1.214886        -0.992350
 H         5.378141        -0.210906        -0.110972
 H         5.117516        -0.370789        -1.875359
 H         0.903913         1.879725        -1.372793
 H         3.279621         2.219635         0.569971
