19
Iteration:  4568
 C        -0.094182        -0.511133         0.080360
 C         1.340537        -0.105937        -0.024854
 C         2.520689        -1.001485        -0.457919
 C         3.474961         0.288569        -0.754368
 C         4.922734         0.347845        -1.115192
 O         2.623326         0.789622        -1.938035
 C         1.667814         1.147392        -0.958891
 C         2.685540         1.322365         0.230105
 O         1.792434         0.657587         1.203128
 H        -0.422568        -0.899862         1.120119
 H        -0.817938         0.235300        -0.104010
 H        -0.293888        -1.282822        -0.648428
 H         2.974247        -1.658848         0.308562
 H         2.345636        -1.595517        -1.352966
 H         5.478714         1.209441        -0.809366
 H         5.408662        -0.612155        -0.765771
 H         4.897230         0.210739        -2.214553
 H         0.852697         1.878255        -1.127061
 H         3.051912         2.339401         0.457515
