19
Iteration:  1772charge 0 multiplicity 1
 C        -0.033571        -0.708672         0.189342
 C         1.301733        -0.037828         0.029540
 C         2.472544        -0.838966        -0.534467
 C         3.387873         0.394046        -0.828470
 C         4.888408         0.154526        -0.932579
 O         2.679026         0.853286        -2.000915
 C         1.626246         1.245980        -0.994818
 C         2.640896         1.379671         0.135358
 O         1.898117         0.592785         1.156685
 H         0.026778        -1.573779         0.899762
 H        -0.875308        -0.064040         0.608242
 H        -0.343974        -0.994259        -0.787101
 H         2.835205        -1.543637         0.294336
 H         2.233973        -1.404807        -1.363454
 H         5.549172         0.848027        -1.417181
 H         5.386653        -0.094534         0.094666
 H         4.934536        -0.814041        -1.506766
 H         0.836187         1.933337        -1.455633
 H         3.117698         2.344532         0.461941
