19
Iteration:  1446charge 0 multiplicity 1
 C         0.004805        -0.695159         0.249689
 C         1.319093        -0.152619        -0.096855
 C         2.497815        -0.957065        -0.453879
 C         3.327411         0.343198        -0.855449
 C         4.874674         0.100998        -0.876428
 O         2.729402         0.925504        -2.045938
 C         1.586394         1.277537        -1.002598
 C         2.620024         1.411230         0.109029
 O         1.901376         0.725526         1.133793
 H         0.057775        -1.421973         1.090308
 H        -0.804456         0.042551         0.626251
 H        -0.557441        -1.289908        -0.458879
 H         2.837640        -1.559786         0.454565
 H         2.522986        -1.568227        -1.251560
 H         5.261675         1.078894        -0.718314
 H         5.223230        -0.746857        -0.100748
 H         5.107268        -0.184499        -1.933178
 H         0.662750         1.843986        -1.354291
 H         3.180572         2.294978         0.438266
