19
Iteration:   121charge 0 multiplicity 1
 C        -0.045357        -0.707426         0.226941
 C         1.273437        -0.050419        -0.088400
 C         2.519792        -0.892350        -0.609646
 C         3.393049         0.341231        -0.762912
 C         4.871783         0.233445        -0.887348
 O         2.673982         0.894915        -1.937216
 C         1.599247         1.303302        -1.000050
 C         2.720872         1.310885         0.166710
 O         1.847812         0.568964         1.084841
 H         0.040380        -1.580830         0.919916
 H        -0.762393         0.002560         0.778078
 H        -0.682281        -1.065080        -0.574177
 H         2.840349        -1.620275         0.228761
 H         2.523433        -1.341911        -1.573654
 H         5.085225        -0.226679        -1.852666
 H         5.433949         1.251801        -0.743357
 H         5.355252        -0.409700        -0.156633
 H         0.875073         1.867175        -1.543634
 H         3.290274         2.073919         0.697250
