19
Iteration:  4137
 C        -0.122870        -0.675209         0.166215
 C         1.318467        -0.096882        -0.033752
 C         2.464696        -0.924644        -0.482554
 C         3.379158         0.366178        -0.736059
 C         4.879479         0.265910        -0.940945
 O         2.695436         0.826175        -1.974067
 C         1.594913         1.205971        -1.038321
 C         2.644343         1.328348         0.119043
 O         1.960440         0.649104         1.167616
 H        -0.107876        -1.536583         0.755281
 H        -0.780813         0.121948         0.652418
 H        -0.492277        -0.856329        -0.860132
 H         2.882416        -1.448138         0.453129
 H         2.393900        -1.528377        -1.398627
 H         5.477830         1.143216        -0.822069
 H         5.440159        -0.502344        -0.378092
 H         5.062632        -0.037101        -1.986472
 H         0.956266         1.988675        -1.469528
 H         3.119701         2.247187         0.405706
