19
Iteration:  3646
 C        -0.062065        -0.532204         0.183786
 C         1.305454        -0.076073        -0.063622
 C         2.475504        -0.944441        -0.568529
 C         3.400728         0.331515        -0.855628
 C         4.898519         0.279311        -0.900438
 O         2.638467         0.912799        -2.012634
 C         1.668221         1.208676        -0.944010
 C         2.659396         1.252595         0.267646
 O         1.873968         0.516221         1.125408
 H         0.191225        -1.333377         0.827740
 H        -0.735459         0.190470         0.651456
 H        -0.567630        -0.912649        -0.758638
 H         2.821962        -1.598302         0.228927
 H         2.401052        -1.558941        -1.465936
 H         5.316916         1.210049        -1.485785
 H         5.162124         0.142838         0.154401
 H         5.129875        -0.579799        -1.570168
 H         1.002936         2.078950        -1.283057
 H         3.270683         2.094906         0.553409
