19
Iteration:  1918charge 0 multiplicity 1
 C        -0.017295        -0.706556         0.039837
 C         1.350787        -0.069895        -0.003992
 C         2.513489        -0.883632        -0.472253
 C         3.361021         0.305939        -0.804070
 C         4.742784         0.120201        -1.122149
 O         2.691979         0.913718        -1.877172
 C         1.691107         1.255120        -0.955834
 C         2.703471         1.381379         0.233161
 O         1.848818         0.680044         1.230292
 H        -0.107128        -1.691098         0.531364
 H        -0.842189        -0.149246         0.453977
 H        -0.307823        -0.795469        -1.092425
 H         2.857322        -1.426499         0.349607
 H         2.285849        -1.578939        -1.308545
 H         5.157568         0.994500        -1.818683
 H         5.296301         0.035811        -0.174086
 H         4.916769        -0.850705        -1.652053
 H         0.941876         1.804270        -1.443727
 H         3.349629         2.168606         0.628736
