19
Iteration:  2472charge 0 multiplicity 1
 C        -0.026823        -0.537790         0.282621
 C         1.291663        -0.131444        -0.108388
 C         2.451943        -0.954791        -0.547548
 C         3.364842         0.263581        -0.820181
 C         4.840991         0.200502        -0.852942
 O         2.672175         0.927572        -1.980545
 C         1.672705         1.294848        -1.000153
 C         2.717906         1.319832         0.097114
 O         1.846723         0.537270         1.087735
 H         0.124202        -1.501534         0.826945
 H        -0.195003         0.173972         1.082661
 H        -0.794627        -0.653418        -0.536781
 H         2.845231        -1.491120         0.390912
 H         2.386666        -1.658991        -1.422591
 H         5.203223         1.269872        -0.994462
 H         5.329044        -0.066365         0.042168
 H         5.225677        -0.304268        -1.740315
 H         0.832417         1.978878        -1.294794
 H         3.321898         2.188772         0.405673
