19
Iteration:   393charge 0 multiplicity 1
 C        -0.021886        -0.727219        -0.004470
 C         1.226754        -0.034986        -0.016995
 C         2.615374        -0.913126        -0.406936
 C         3.379952         0.333499        -0.723537
 C         4.874604         0.166150        -1.115359
 O         2.651421         0.888738        -1.925162
 C         1.637422         1.303062        -0.933815
 C         2.654539         1.307959         0.219121
 O         1.822070         0.661127         1.148461
 H        -0.104671        -1.539593         0.735085
 H        -0.876830         0.018664         0.319608
 H        -0.030822        -1.041456        -0.999788
 H         2.909444        -1.578534         0.541608
 H         2.577600        -1.517249        -1.259958
 H         5.188619         1.038663        -1.671425
 H         5.681294         0.145994        -0.255344
 H         4.982185        -0.776822        -1.653009
 H         0.759546         1.915434        -0.975573
 H         3.275243         2.152239         0.522625
