19
Iteration:  3058charge 0 multiplicity 1
 C        -0.107102        -0.506000        -0.045211
 C         1.357923        -0.065977        -0.051511
 C         2.588691        -0.964370        -0.353221
 C         3.424612         0.237335        -0.849115
 C         4.830118         0.247600        -1.102959
 O         2.592471         0.712525        -1.892853
 C         1.656451         1.278991        -0.856943
 C         2.653300         1.399422         0.149452
 O         1.858141         0.609955         1.181653
 H        -0.100450        -1.339225         0.655605
 H        -0.610470         0.291871         0.506763
 H        -0.479302        -0.702580        -1.085581
 H         3.023106        -1.240236         0.582396
 H         2.685635        -1.658422        -1.125038
 H         5.355379         1.057535        -1.759916
 H         5.331886         0.229096        -0.127542
 H         5.072235        -0.742323        -1.345332
 H         0.764578         1.918176        -1.047355
 H         3.238495         2.328970         0.529606
