19
Iteration:  1763
 C        -0.048044        -0.701695         0.147433
 C         1.328729        -0.024781        -0.018201
 C         2.534353        -0.842670        -0.422550
 C         3.398254         0.398516        -0.745638
 C         4.900983         0.079854        -0.978118
 O         2.619751         0.869974        -2.035562
 C         1.606397         1.250864        -0.991381
 C         2.631144         1.358256         0.170005
 O         1.898851         0.632931         1.135487
 H        -0.029768        -1.641259         0.682420
 H        -0.782414         0.061933         0.453736
 H        -0.465781        -1.144379        -0.823019
 H         2.939462        -1.639341         0.293450
 H         2.366293        -1.214986        -1.341113
 H         5.258097         0.965686        -1.566127
 H         5.470797         0.100392         0.033146
 H         5.012739        -0.810856        -1.553864
 H         0.749395         1.821010        -1.318933
 H         3.304797         2.075478         0.692022
