19
Iteration:  4391
 C        -0.147440        -0.699298         0.107998
 C         1.289721        -0.079223        -0.043499
 C         2.558582        -0.947088        -0.392813
 C         3.439721         0.243935        -0.815373
 C         4.898638         0.235107        -1.048987
 O         2.575824         0.901529        -1.960505
 C         1.734488         1.231474        -0.921466
 C         2.708459         1.339694         0.208673
 O         1.850847         0.681168         1.119841
 H        -0.379765        -1.198248         1.049619
 H        -0.801941         0.120385         0.008376
 H        -0.317663        -1.361081        -0.746128
 H         3.038331        -1.359283         0.517288
 H         2.439480        -1.777190        -1.142562
 H         5.129984         1.310463        -0.924208
 H         5.337235        -0.389072        -0.270711
 H         5.017427         0.000424        -2.102947
 H         1.000333         1.947924        -1.317895
 H         3.266129         2.321454         0.336413
