19
Iteration:  1146
 C         0.012519        -0.683170         0.239513
 C         1.320780        -0.079611        -0.023937
 C         2.508945        -0.901138        -0.456325
 C         3.401831         0.298463        -0.799719
 C         4.894951         0.132545        -0.889372
 O         2.567917         0.935742        -1.981417
 C         1.664739         1.284562        -1.029071
 C         2.693857         1.338773         0.090275
 O         1.855003         0.617513         1.043397
 H        -0.049804        -1.609603         0.734233
 H        -0.507226         0.020519         0.910658
 H        -0.586816        -0.839156        -0.705683
 H         2.654756        -1.583291         0.272524
 H         2.278633        -1.353498        -1.460171
 H         5.458899         1.069167        -1.376860
 H         5.139874         0.142123         0.243271
 H         5.254639        -0.844376        -1.340645
 H         0.870717         1.971746        -1.252669
 H         3.091299         2.325111         0.489082
