19
Iteration:  2499
 C        -0.107993        -0.676883         0.293080
 C         1.243469        -0.067226        -0.041755
 C         2.454415        -0.892741        -0.630598
 C         3.398508         0.286002        -0.860173
 C         4.932955         0.117222        -0.890856
 O         2.697963         0.881894        -1.973147
 C         1.640380         1.302965        -0.961422
 C         2.711515         1.403818         0.135840
 O         1.870201         0.615961         1.119272
 H         0.074453        -1.383841         1.090415
 H        -0.716001         0.050493         0.829080
 H        -0.518972        -1.122273        -0.566959
 H         2.811455        -1.710991        -0.044297
 H         2.306335        -1.257064        -1.648266
 H         5.396546         1.082394        -1.060813
 H         5.260992        -0.167715         0.157807
 H         5.377762        -0.481422        -1.705584
 H         0.791861         1.858152        -1.342422
 H         3.188677         2.324552         0.508769
