19
Iteration:  1608charge 0 multiplicity 1
 C        -0.006000        -0.778737         0.244486
 C         1.280362        -0.089790        -0.037991
 C         2.474842        -0.899452        -0.491416
 C         3.406163         0.276277        -0.739491
 C         4.888331         0.169987        -0.951927
 O         2.643896         0.882480        -1.958577
 C         1.710335         1.299188        -1.042055
 C         2.680157         1.364091         0.094600
 O         1.783558         0.723539         1.099211
 H         0.185903        -1.485795         1.093433
 H        -0.745573        -0.012616         0.635198
 H        -0.407106        -1.172730        -0.646597
 H         2.885567        -1.713814         0.285878
 H         2.270696        -1.313505        -1.442338
 H         5.379902         1.105037        -1.008330
 H         5.310483        -0.387639        -0.100301
 H         5.057784        -0.415207        -1.891385
 H         1.070416         2.190926        -1.365769
 H         3.280788         2.248783         0.362712
