19
Iteration:  3519
 C        -0.064681        -0.584374         0.123650
 C         1.332650        -0.099691        -0.153033
 C         2.454593        -0.994314        -0.586782
 C         3.420610         0.301766        -0.829240
 C         4.920435         0.262242        -0.904742
 O         2.539515         0.932936        -1.945869
 C         1.652019         1.226319        -0.915870
 C         2.756266         1.289715         0.204769
 O         1.886257         0.586853         1.127184
 H        -0.044883        -1.211648         1.047931
 H        -0.514583         0.349183         0.644238
 H        -0.748969        -1.018253        -0.586926
 H         2.952630        -1.559117         0.260489
 H         2.388929        -1.686664        -1.402612
 H         5.247341         1.252629        -0.880416
 H         5.156224        -0.085473         0.065649
 H         5.176170        -0.419857        -1.688634
 H         0.877567         1.977202        -1.150364
 H         3.375865         2.098062         0.605319
