19
Iteration:  2713
 C        -0.077722        -0.644774         0.069883
 C         1.326667        -0.017524        -0.016680
 C         2.504690        -0.994771        -0.397656
 C         3.401039         0.259517        -0.783245
 C         4.833028         0.197599        -1.100281
 O         2.700707         0.826863        -1.902275
 C         1.697498         1.237500        -0.943607
 C         2.697945         1.365493         0.148719
 O         1.821128         0.737579         1.176868
 H        -0.144864        -1.277224         0.977988
 H        -0.874136         0.169643         0.196393
 H        -0.246573        -1.264827        -0.878142
 H         2.769592        -1.461521         0.518869
 H         2.189296        -1.645927        -1.229074
 H         5.143162         1.053709        -1.673340
 H         5.454760         0.030212        -0.265384
 H         5.078119        -0.644585        -1.862714
 H         0.825522         1.835863        -1.332600
 H         3.204085         2.175514         0.524716
