19
Iteration:  1472charge 0 multiplicity 1
 C        -0.023593        -0.667695         0.291515
 C         1.298610        -0.055364        -0.001622
 C         2.514945        -0.897831        -0.500798
 C         3.427468         0.361214        -0.788906
 C         4.956283         0.099839        -0.868467
 O         2.630753         0.909570        -1.992986
 C         1.604990         1.182241        -1.042254
 C         2.654309         1.402799         0.086075
 O         1.843129         0.676312         1.054364
 H         0.126743        -1.522506         0.962231
 H        -0.785934        -0.103158         0.850491
 H        -0.542809        -1.229025        -0.554642
 H         2.863638        -1.737590         0.004992
 H         2.243429        -1.205458        -1.621906
 H         5.514530         1.069965        -0.770860
 H         5.132874        -0.641297        -0.011471
 H         5.196558        -0.403332        -1.787055
 H         0.775121         1.717009        -1.436722
 H         3.041770         2.421825         0.361784
