19
Iteration:  2845
 C        -0.081801        -0.721127         0.228184
 C         1.306205        -0.052426        -0.067232
 C         2.525350        -0.863026        -0.484322
 C         3.335105         0.269749        -0.886678
 C         4.835285         0.076130        -0.869827
 O         2.652718         0.880920        -2.029527
 C         1.669189         1.249078        -0.942968
 C         2.650104         1.480397         0.100742
 O         1.934016         0.672685         1.085740
 H         0.105831        -1.641278         0.760703
 H        -0.677774        -0.065763         0.929156
 H        -0.632236        -0.829295        -0.689088
 H         2.953234        -1.276640         0.401166
 H         2.488385        -1.728783        -1.193289
 H         5.446508         0.958312        -1.043969
 H         5.124864         0.085785         0.214827
 H         5.267342        -1.006638        -1.254507
 H         0.802005         1.871323        -1.229502
 H         3.203082         2.350034         0.346885
