19
Iteration:   342
 C        -0.116761        -0.670263         0.071160
 C         1.245254        -0.119073        -0.021850
 C         2.559071        -0.907387        -0.420527
 C         3.443632         0.327902        -0.796693
 C         4.924169         0.230059        -1.059203
 O         2.631214         0.888414        -1.907788
 C         1.681838         1.139138        -0.936281
 C         2.701532         1.367814         0.174387
 O         1.814119         0.662396         1.137581
 H        -0.158049        -1.326681         0.958473
 H        -0.835562         0.159474         0.157606
 H        -0.242054        -1.272654        -0.882116
 H         2.975919        -1.383613         0.464363
 H         2.336037        -1.604971        -1.296815
 H         5.458840         1.185870        -0.871889
 H         5.423095        -0.622478        -0.548732
 H         5.027832         0.075304        -2.163159
 H         0.962553         1.987711        -1.036028
 H         3.002284         2.404577         0.502636
