19
Iteration:   698
 C        -0.053701        -0.777110        -0.040862
 C         1.238670        -0.037109        -0.070527
 C         2.490591        -0.898830        -0.392389
 C         3.432317         0.320438        -0.775990
 C         4.872926         0.157290        -1.174006
 O         2.634639         0.861572        -1.910072
 C         1.713318         1.304406        -0.882769
 C         2.714633         1.398258         0.295191
 O         1.830619         0.674523         1.170465
 H        -0.119608        -1.337912         0.906134
 H        -0.945271        -0.037763         0.085436
 H        -0.158013        -1.473938        -0.857332
 H         2.802163        -1.364309         0.606921
 H         2.489740        -1.711626        -1.057087
 H         5.467214         1.086209        -1.131608
 H         5.336134        -0.597132        -0.492566
 H         4.854635        -0.298282        -2.186167
 H         1.024533         2.100647        -1.158232
 H         3.240354         2.288675         0.706840
