19
Iteration:  2637
 C        -0.054928        -0.636121         0.267215
 C         1.301547        -0.081399        -0.035276
 C         2.470051        -1.004031        -0.524875
 C         3.346012         0.276995        -0.835356
 C         4.879774         0.169095        -0.826306
 O         2.653988         0.894930        -2.059676
 C         1.589241         1.233328        -0.987474
 C         2.681569         1.384122         0.057938
 O         1.961857         0.694962         1.147539
 H        -0.163226        -1.698024         0.536423
 H        -0.654740        -0.006492         1.041529
 H        -0.533534        -0.587560        -0.786160
 H         2.935244        -1.553605         0.217954
 H         2.239963        -1.365311        -1.562736
 H         5.495936         1.056935        -0.796945
 H         5.071505        -0.236854         0.121380
 H         5.295022        -0.579530        -1.576295
 H         0.980740         2.123051        -1.376183
 H         3.264087         2.141749         0.468603
