19
Iteration:  3307charge 0 multiplicity 1
 C        -0.096078        -0.701195         0.247116
 C         1.314629        -0.055397        -0.084015
 C         2.428470        -0.917858        -0.559443
 C         3.407412         0.294424        -0.841957
 C         4.893613         0.168570        -0.877772
 O         2.619314         0.949069        -1.955290
 C         1.694181         1.278209        -0.975697
 C         2.679404         1.398093         0.145642
 O         1.901903         0.574144         1.046703
 H         0.238771        -1.318919         1.156620
 H        -0.746508         0.056856         0.627012
 H        -0.455365        -1.360280        -0.612271
 H         2.905762        -1.587317         0.249749
 H         2.258920        -1.554527        -1.434735
 H         5.351084         1.165928        -0.951184
 H         5.154316        -0.166835         0.124115
 H         5.284886        -0.511867        -1.613349
 H         0.862607         1.960019        -1.239941
 H         3.287323         2.205745         0.663917
