19
Iteration:  3012charge 0 multiplicity 1
 C        -0.090473        -0.676297         0.305366
 C         1.271145        -0.065552        -0.079048
 C         2.461085        -0.966951        -0.538918
 C         3.413904         0.304884        -0.858685
 C         4.876836         0.167230        -0.928100
 O         2.719774         0.837990        -1.926007
 C         1.665297         1.255299        -0.973903
 C         2.671837         1.355063         0.102848
 O         1.823553         0.697522         1.081890
 H         0.071649        -1.601034         0.923619
 H        -0.551045         0.055294         0.863198
 H        -0.533869        -0.804730        -0.656776
 H         2.757594        -1.639446         0.272354
 H         2.181105        -1.435271        -1.423727
 H         5.306962         1.119987        -1.314324
 H         5.484871         0.171520         0.038224
 H         5.395578        -0.616970        -1.485784
 H         1.170266         2.111380        -1.314041
 H         3.127324         2.419235         0.333572
