19
Iteration:   804
 C        -0.059481        -0.634441         0.233082
 C         1.245805        -0.021371        -0.090792
 C         2.447306        -0.948783        -0.616250
 C         3.416266         0.232561        -0.789142
 C         4.899435         0.276309        -0.862758
 O         2.646529         0.867968        -1.944855
 C         1.652222         1.237660        -0.949295
 C         2.729024         1.346863         0.130959
 O         1.900307         0.598598         1.114677
 H         0.045425        -1.638952         0.705064
 H        -0.675084         0.116767         0.734082
 H        -0.525689        -0.811178        -0.728663
 H         2.821928        -1.681827         0.180292
 H         2.112638        -1.376826        -1.518087
 H         5.139899         1.157121        -1.321282
 H         5.304803         0.127785         0.220182
 H         5.170869        -0.510841        -1.524629
 H         0.868726         1.910992        -1.314393
 H         3.364997         2.209556         0.269733
