19
Iteration:    88charge 0 multiplicity 1
 C        -0.007027        -0.718425         0.058444
 C         1.329342        -0.079097        -0.023310
 C         2.511964        -0.994478        -0.504997
 C         3.363574         0.337093        -0.855526
 C         4.912239         0.173094        -0.986096
 O         2.636901         0.999586        -1.888236
 C         1.603327         1.300956        -0.947567
 C         2.674695         1.339497         0.223405
 O         1.830383         0.617122         1.139821
 H        -0.058512        -1.521915         0.812304
 H        -0.597155         0.136688         0.475569
 H        -0.412765        -0.979103        -0.934748
 H         2.885492        -1.625510         0.359653
 H         2.435853        -1.671827        -1.342764
 H         5.213300        -0.777796        -1.394233
 H         5.384556         0.947838        -1.661945
 H         5.324063         0.308986        -0.000795
 H         0.720772         1.707306        -1.398323
 H         3.310087         2.145627         0.579470
