19
Iteration:  3450
 C        -0.069075        -0.660082         0.131015
 C         1.270392        -0.009243        -0.068675
 C         2.588638        -0.926779        -0.552440
 C         3.379250         0.285750        -0.815376
 C         4.975036         0.102555        -1.088785
 O         2.630928         0.949939        -1.903490
 C         1.663139         1.321078        -0.906936
 C         2.668349         1.370447         0.241068
 O         1.787183         0.566111         1.164192
 H         0.093555        -1.430829         0.857264
 H        -0.838096        -0.065226         0.580211
 H        -0.374733        -1.116040        -0.839821
 H         2.834950        -1.482305         0.316059
 H         2.403461        -1.644803        -1.386217
 H         5.484823         0.941989        -1.568090
 H         5.408050         0.048542        -0.194813
 H         5.010749        -0.839444        -1.540314
 H         0.931459         2.074692        -1.339494
 H         2.987963         2.290967         0.756438
