19
Iteration:  2439charge 0 multiplicity 1
 C        -0.118161        -0.558453         0.061525
 C         1.291873        -0.105311         0.036820
 C         2.458523        -0.900112        -0.486556
 C         3.434432         0.361270        -0.811897
 C         4.916751         0.224972        -1.030898
 O         2.597706         0.812468        -1.975909
 C         1.690961         1.197080        -0.959042
 C         2.750593         1.315258         0.176654
 O         1.874490         0.621362         1.246398
 H        -0.194462        -1.607966         0.469173
 H        -0.740578         0.115619         0.605083
 H        -0.683571        -0.528685        -0.919711
 H         3.019431        -1.549081         0.343138
 H         2.389760        -1.517745        -1.400426
 H         5.320604         1.259643        -1.299506
 H         5.378861        -0.279757        -0.217374
 H         5.028891        -0.503528        -1.818709
 H         0.874377         1.852487        -1.319968
 H         3.295190         2.234224         0.487251
