19
Iteration:  4283charge 0 multiplicity 1
 C        -0.065034        -0.619850         0.046817
 C         1.305746        -0.110364         0.002534
 C         2.509641        -0.902572        -0.469884
 C         3.412556         0.352281        -0.725396
 C         4.788575         0.286143        -1.023508
 O         2.640200         0.780550        -1.923107
 C         1.673010         1.163210        -0.904545
 C         2.690359         1.378628         0.156046
 O         1.888259         0.619558         1.110638
 H        -0.083188        -1.567536         0.690885
 H        -0.564340         0.215753         0.489220
 H        -0.405396        -0.821943        -0.981921
 H         2.821972        -1.553651         0.333284
 H         2.414096        -1.481028        -1.403345
 H         5.221344         1.106085        -1.611194
 H         5.420879         0.266636        -0.110976
 H         5.068250        -0.660684        -1.475564
 H         0.980958         2.000332        -1.161628
 H         3.233041         2.354307         0.339518
