19
Iteration:  2807charge 0 multiplicity 1
 C        -0.025188        -0.697542         0.340957
 C         1.279587        -0.027236        -0.081601
 C         2.476297        -0.874520        -0.572847
 C         3.466091         0.240505        -0.732177
 C         4.879827         0.102920        -0.964260
 O         2.733589         0.826379        -2.009048
 C         1.689428         1.272816        -1.040220
 C         2.622857         1.427985         0.151244
 O         1.797743         0.716852         1.090024
 H         0.182070        -1.565079         1.053639
 H        -0.747130        -0.118194         0.851321
 H        -0.561493        -1.253827        -0.460074
 H         2.695398        -1.672579         0.266642
 H         2.191433        -1.299428        -1.526036
 H         5.289236         1.154184        -1.086990
 H         5.112195        -0.331581         0.035919
 H         5.171227        -0.489242        -1.785083
 H         0.835738         1.909017        -1.294226
 H         3.010998         2.475135         0.517790
