19
Iteration:  1516
 C        -0.064199        -0.646268         0.135433
 C         1.286719        -0.020552         0.024614
 C         2.503099        -0.944273        -0.313739
 C         3.355085         0.266598        -0.752671
 C         4.897161         0.271030        -1.044643
 O         2.680107         0.854415        -2.018767
 C         1.650157         1.200510        -0.937736
 C         2.723097         1.345390         0.134804
 O         1.841441         0.633210         1.047355
 H        -0.186700        -1.553354         0.792189
 H        -0.876841         0.007204         0.422850
 H        -0.404139        -0.876813        -0.935462
 H         2.772808        -1.426966         0.534832
 H         2.277348        -1.651129        -1.212347
 H         5.150945         1.258845        -1.576818
 H         5.520700         0.274664        -0.098239
 H         5.187744        -0.576773        -1.676062
 H         0.896604         1.905195        -1.224622
 H         3.446684         2.002416         0.650718
