19
Iteration:  1015
 C        -0.059468        -0.734294         0.127211
 C         1.300861         0.014547        -0.008921
 C         2.552001        -0.879619        -0.481860
 C         3.425161         0.278951        -0.778998
 C         4.852384         0.148667        -1.036515
 O         2.611832         0.796699        -1.933918
 C         1.699700         1.312797        -0.955493
 C         2.700557         1.427030         0.193537
 O         1.785320         0.656336         1.150806
 H        -0.032462        -1.630145         0.727540
 H        -0.754095         0.106121         0.372424
 H        -0.224554        -1.023772        -0.952922
 H         2.934702        -1.606170         0.208026
 H         2.360997        -1.476427        -1.461810
 H         5.467692         1.009922        -1.429544
 H         5.271800        -0.150885        -0.163736
 H         5.062585        -0.644130        -1.792624
 H         0.851533         1.947743        -1.226438
 H         3.390694         2.240381         0.636681
