19
Iteration:    49
 C        -0.096840        -0.659226        -0.083971
 C         1.302684        -0.073600        -0.113224
 C         2.501434        -0.919367        -0.412881
 C         3.440001         0.332489        -0.784645
 C         5.021866         0.232166        -1.172770
 O         2.602625         0.848680        -1.815583
 C         1.596989         1.291825        -0.881732
 C         2.653122         1.427872         0.275991
 O         1.856778         0.539397         1.224564
 H        -0.150877        -1.420206         0.693640
 H        -0.946277         0.067390         0.088599
 H        -0.303657        -1.176211        -0.996715
 H         2.824044        -1.478805         0.475993
 H         2.261605        -1.553673        -1.267846
 H         5.284580        -0.817570        -1.068423
 H         5.187399         0.546601        -2.258892
 H         5.723455         0.790965        -0.557997
 H         0.783981         1.915126        -1.307704
 H         3.295413         2.166560         0.834612
