19
Iteration:  2250charge 0 multiplicity 1
 C        -0.084895        -0.653081        -0.013464
 C         1.302346        -0.047757        -0.076101
 C         2.540582        -0.940904        -0.317694
 C         3.409608         0.331183        -0.770202
 C         4.879627         0.070911        -1.231993
 O         2.641744         0.987596        -1.857614
 C         1.613846         1.273546        -0.825262
 C         2.685841         1.292776         0.229306
 O         1.855524         0.655640         1.137457
 H         0.019298        -1.646507         0.451512
 H        -0.883857        -0.072786         0.430417
 H        -0.334813        -0.767568        -1.037735
 H         3.075533        -1.378140         0.582163
 H         2.390067        -1.711922        -1.153595
 H         5.203447         1.003706        -1.645421
 H         5.613969        -0.227009        -0.433366
 H         5.125757        -0.632729        -2.021909
 H         0.776508         1.915678        -1.063141
 H         3.234271         2.147379         0.576413
