19
Iteration:  2770charge 0 multiplicity 1
 C        -0.101860        -0.590147         0.109673
 C         1.323161        -0.019619        -0.049709
 C         2.584369        -0.937799        -0.276296
 C         3.465241         0.223897        -0.773717
 C         4.828111         0.183853        -1.056534
 O         2.610165         0.893256        -2.029199
 C         1.674084         1.177204        -0.951195
 C         2.669605         1.307797         0.135493
 O         1.849366         0.670914         1.117731
 H        -0.218680        -1.003688         1.170712
 H        -0.778763         0.332143        -0.101600
 H        -0.247576        -1.281097        -0.725498
 H         2.772394        -1.514293         0.590225
 H         2.522714        -1.707794        -1.084855
 H         5.116932         1.201770        -0.934332
 H         5.424293        -0.354123        -0.272011
 H         5.133730        -0.281620        -2.026044
 H         0.934680         1.960644        -1.073106
 H         3.018432         2.312613         0.473107
