19
Iteration:  2859
 C        -0.034943        -0.613979         0.143562
 C         1.320878        -0.045868        -0.015359
 C         2.526614        -0.898856        -0.450020
 C         3.410309         0.353676        -0.826079
 C         4.879296         0.139179        -0.857128
 O         2.564307         0.801526        -2.037736
 C         1.619091         1.204312        -1.015988
 C         2.675312         1.379623         0.125660
 O         1.926454         0.666503         1.162520
 H        -0.053475        -1.691023         0.638397
 H        -0.674210         0.075407         0.711056
 H        -0.482678        -0.782557        -0.849734
 H         2.861183        -1.479047         0.417712
 H         2.290325        -1.420781        -1.357449
 H         5.300001         0.879230        -1.554227
 H         5.352400        -0.037146         0.158588
 H         5.078704        -0.734350        -1.493357
 H         0.932239         1.920688        -1.357687
 H         3.127904         2.399911         0.521873
