19
Iteration:   160charge 0 multiplicity 1
 C        -0.148767        -0.669529         0.167511
 C         1.264203        -0.066436        -0.050398
 C         2.569445        -0.871200        -0.521760
 C         3.426529         0.310545        -0.807020
 C         4.954177         0.251154        -0.968572
 O         2.666605         0.932192        -1.954234
 C         1.567441         1.178507        -0.977230
 C         2.734382         1.313319         0.166750
 O         1.831715         0.583265         1.174484
 H        -0.114873        -1.389317         0.977714
 H        -0.757006         0.133850         0.403253
 H        -0.351615        -1.059652        -0.914066
 H         2.786417        -1.488258         0.298029
 H         2.449750        -1.641150        -1.397451
 H         5.198811         0.480437        -2.054254
 H         5.470038         0.934057        -0.409653
 H         5.252707        -0.843173        -0.679558
 H         0.760403         1.901152        -1.304621
 H         3.265077         2.204276         0.536825
