19
Iteration:  1969charge 0 multiplicity 1
 C        -0.079817        -0.584487         0.309777
 C         1.294902        -0.075564        -0.096995
 C         2.523967        -0.940844        -0.643410
 C         3.339486         0.320973        -0.891643
 C         4.830998         0.196589        -0.842198
 O         2.666865         0.954117        -2.016448
 C         1.653415         1.265359        -0.984912
 C         2.625315         1.274823         0.208999
 O         1.985093         0.543822         1.106516
 H         0.055912        -1.357270         1.076113
 H        -0.710722         0.230545         0.669387
 H        -0.703514        -1.080380        -0.419282
 H         2.889491        -1.696489         0.221416
 H         2.361813        -1.400337        -1.577469
 H         5.241752         1.157263        -1.091138
 H         5.056546        -0.151147         0.192994
 H         5.305548        -0.478044        -1.479858
 H         0.980179         2.053358        -1.288673
 H         3.178671         2.107789         0.619330
