19
Iteration:  2005charge 0 multiplicity 1
 C        -0.161172        -0.585879         0.193869
 C         1.272877        -0.096171        -0.032831
 C         2.524509        -0.901415        -0.590689
 C         3.427246         0.295154        -0.815557
 C         4.901143         0.245613        -0.977294
 O         2.623396         0.894524        -1.963864
 C         1.630790         1.231173        -0.909938
 C         2.743144         1.249241         0.166780
 O         1.915371         0.603598         1.131596
 H        -0.122631        -1.101649         1.108520
 H        -0.845953         0.166768         0.394026
 H        -0.392718        -1.277788        -0.665679
 H         2.691903        -1.688004         0.121735
 H         2.215156        -1.392607        -1.571759
 H         5.376968         1.279959        -0.749767
 H         5.381993        -0.296160        -0.196994
 H         5.148251        -0.150206        -1.958278
 H         0.974359         2.003353        -1.220382
 H         3.234425         2.066720         0.729845
