19
Iteration:  3010
 C        -0.067958        -0.675814         0.314416
 C         1.275316        -0.064360        -0.080658
 C         2.455436        -0.943056        -0.535039
 C         3.434750         0.305987        -0.867494
 C         4.861380         0.171587        -0.919874
 O         2.710876         0.836443        -1.928044
 C         1.670298         1.251291        -0.981490
 C         2.659207         1.357171         0.110874
 O         1.818157         0.689557         1.063379
 H         0.096047        -1.592825         0.933027
 H        -0.589108         0.072488         0.902709
 H        -0.496271        -0.832455        -0.636381
 H         2.748638        -1.587185         0.317170
 H         2.183804        -1.465983        -1.488268
 H         5.269388         1.103735        -1.271694
 H         5.447749         0.094906         0.081282
 H         5.396352        -0.689479        -1.503693
 H         1.185934         2.155715        -1.284822
 H         3.170812         2.324938         0.379963
