19
Iteration:  2111
 C        -0.042240        -0.651808         0.143007
 C         1.294316        -0.111801        -0.037138
 C         2.547369        -0.980952        -0.534784
 C         3.313948         0.289945        -0.842056
 C         4.770900         0.194850        -0.964727
 O         2.660794         0.977078        -1.972002
 C         1.700398         1.314220        -0.888837
 C         2.711579         1.307412         0.218981
 O         1.917163         0.619533         1.091991
 H        -0.054042        -1.632476         0.669146
 H        -0.590868         0.112203         0.706900
 H        -0.637260        -0.729557        -0.826463
 H         2.937851        -1.726400         0.232571
 H         2.237713        -1.499598        -1.361620
 H         5.206130         1.067625        -1.507253
 H         5.136226        -0.081464         0.044489
 H         5.017323        -0.669361        -1.537962
 H         0.926137         2.019834        -1.012814
 H         3.364118         2.090044         0.625854
