19
Iteration:   734charge 0 multiplicity 1
 C        -0.072072        -0.687340         0.031042
 C         1.370254        -0.135541        -0.097569
 C         2.510015        -0.992633        -0.442655
 C         3.384372         0.283437        -0.813799
 C         4.873107         0.186261        -1.088081
 O         2.647184         0.886550        -1.893729
 C         1.736272         1.258049        -0.878307
 C         2.639357         1.447779         0.251876
 O         1.846979         0.708613         1.183719
 H        -0.110870        -1.478540         0.798669
 H        -0.732112         0.150139         0.201554
 H        -0.432262        -1.169703        -1.007484
 H         2.595789        -1.498111         0.460605
 H         2.211958        -1.604125        -1.383946
 H         5.374313         1.165544        -1.442904
 H         5.331418        -0.313102        -0.300566
 H         4.941115        -0.463046        -2.004897
 H         0.840566         1.857906        -1.093533
 H         3.125276         2.348957         0.679061
