19
Iteration:  2704
 C        -0.021578        -0.699848         0.155310
 C         1.274956        -0.030148        -0.041105
 C         2.519350        -0.906204        -0.391620
 C         3.377795         0.211591        -0.799249
 C         4.872026         0.159257        -1.092181
 O         2.704844         0.874586        -1.938418
 C         1.668139         1.234644        -0.986466
 C         2.699008         1.338647         0.230706
 O         1.826644         0.739745         1.092466
 H        -0.310179        -1.429800         0.929144
 H        -0.722998         0.232922         0.345478
 H        -0.516566        -1.105376        -0.769766
 H         2.603215        -1.404204         0.528348
 H         2.363113        -1.654699        -1.234354
 H         5.131792         1.074266        -1.508372
 H         5.404998         0.122285        -0.167550
 H         5.023066        -0.751359        -1.710943
 H         0.977715         2.039559        -1.319537
 H         3.213505         2.188585         0.626797
