19
Iteration:  3174
 C         0.007497        -0.611682         0.236388
 C         1.305386        -0.078018        -0.022762
 C         2.490026        -0.985688        -0.586110
 C         3.350141         0.294595        -0.789266
 C         4.869276         0.188877        -0.821384
 O         2.622500         0.871284        -1.984978
 C         1.637494         1.274134        -1.008692
 C         2.684566         1.373423         0.078433
 O         1.924337         0.646525         1.107567
 H        -0.024050        -1.439168         1.061744
 H        -0.675631         0.107103         0.646572
 H        -0.454278        -0.970004        -0.693772
 H         2.841943        -1.866350         0.082489
 H         2.185527        -1.217458        -1.620170
 H         5.262828         1.126856        -0.684093
 H         5.260365        -0.554830        -0.052284
 H         5.117521        -0.351515        -1.752122
 H         0.896567         1.914937        -1.393276
 H         3.053168         2.334715         0.489916
