19
Iteration:  1441charge 0 multiplicity 1
 C        -0.010950        -0.687961         0.214920
 C         1.304754        -0.129652        -0.116569
 C         2.522146        -0.969225        -0.389252
 C         3.330996         0.329695        -0.813240
 C         4.915428         0.104739        -0.910108
 O         2.674622         0.888018        -2.083530
 C         1.599738         1.326037        -0.971547
 C         2.648473         1.421865         0.150064
 O         1.880135         0.699666         1.122641
 H         0.230856        -1.311265         1.112075
 H        -0.760595        -0.024693         0.519435
 H        -0.672941        -1.306507        -0.439464
 H         2.799629        -1.596181         0.452794
 H         2.393806        -1.608229        -1.411397
 H         5.380141         1.123574        -0.679871
 H         5.304601        -0.508415        -0.197703
 H         5.167844        -0.189676        -1.930172
 H         0.730298         1.794747        -1.445942
 H         3.167386         2.318429         0.504907
