19
Iteration:  4590charge 0 multiplicity 1
 C        -0.092474        -0.628238         0.060517
 C         1.291921        -0.103922        -0.004929
 C         2.486567        -0.929230        -0.386460
 C         3.379730         0.216756        -0.819583
 C         4.912093         0.238571        -1.102628
 O         2.683070         0.920169        -1.929286
 C         1.665416         1.211807        -0.936133
 C         2.654315         1.389154         0.168768
 O         1.889396         0.626439         1.146824
 H        -0.304388        -0.876527         1.180188
 H        -0.907652         0.064750        -0.129547
 H        -0.236729        -1.461885        -0.613420
 H         3.002271        -1.405377         0.498944
 H         2.276761        -1.755473        -1.066650
 H         5.008078         1.177875        -0.600433
 H         5.493096        -0.543408        -0.529331
 H         5.162283         0.300547        -2.166274
 H         0.708365         1.733656        -1.273441
 H         3.412936         2.116791         0.553483
