19
Iteration:  3632charge 0 multiplicity 1
 C        -0.077735        -0.641495         0.124437
 C         1.322757        -0.072559        -0.107142
 C         2.509719        -0.947062        -0.535682
 C         3.345618         0.327414        -0.734427
 C         4.863703         0.220859        -0.988970
 O         2.612124         0.865601        -1.895726
 C         1.662186         1.311265        -0.951583
 C         2.723880         1.385092         0.169330
 O         1.934908         0.533004         1.119284
 H        -0.383835        -1.471171         0.844227
 H        -0.632932         0.205586         0.499124
 H        -0.460631        -0.986388        -0.889469
 H         2.764943        -1.625448         0.264271
 H         2.266881        -1.283256        -1.574716
 H         5.274009         1.152769        -1.239059
 H         5.414183        -0.037522        -0.028204
 H         5.184276        -0.578235        -1.632877
 H         0.831941         1.934298        -1.250334
 H         3.133619         2.142058         0.807762
