19
Iteration:   476charge 0 multiplicity 1
 C        -0.103835        -0.613723         0.203568
 C         1.273903        -0.047134        -0.095814
 C         2.581943        -0.970386        -0.601926
 C         3.433245         0.320382        -0.821993
 C         4.931496         0.260751        -0.889346
 O         2.642859         0.929987        -1.932121
 C         1.571426         1.179781        -0.934016
 C         2.669053         1.292337         0.118204
 O         1.886457         0.614477         1.147082
 H        -0.014682        -1.428900         0.947751
 H        -0.798658         0.111192         0.504414
 H        -0.746669        -1.023190        -0.641370
 H         2.833973        -1.578383         0.228191
 H         2.390796        -1.739018        -1.405435
 H         5.503036         1.203878        -0.878368
 H         5.111973        -0.353098        -0.044135
 H         5.310124        -0.252024        -1.801130
 H         0.795027         1.889145        -1.284841
 H         3.204082         2.232353         0.279776
