19
Iteration:  4449charge 0 multiplicity 1
 C        -0.128395        -0.686206         0.177460
 C         1.296254        -0.156305        -0.049218
 C         2.566970        -1.073717        -0.484076
 C         3.410133         0.345589        -0.854615
 C         4.879523         0.232742        -1.016172
 O         2.709486         0.928620        -1.958987
 C         1.611918         1.310176        -0.863688
 C         2.687263         1.349299         0.114905
 O         1.829433         0.689930         1.144468
 H        -0.320987        -1.523686         0.926385
 H        -0.706961         0.145015         0.512880
 H        -0.631627        -0.870115        -0.754416
 H         3.017461        -1.659825         0.332750
 H         2.339469        -1.715512        -1.314115
 H         5.377714         0.877322        -1.673852
 H         5.615470         0.348199        -0.119536
 H         5.118429        -0.832044        -1.251006
 H         0.870814         1.995907        -1.163478
 H         3.156776         2.317422         0.330007
