19
Iteration:  2927
 C        -0.069102        -0.581239         0.062833
 C         1.299255        -0.027471        -0.112133
 C         2.527542        -0.961324        -0.349301
 C         3.469107         0.242296        -0.751922
 C         4.888492         0.194269        -1.130471
 O         2.635915         0.759711        -1.889070
 C         1.658220         1.252667        -0.928353
 C         2.695272         1.361576         0.229100
 O         1.826570         0.698276         1.095949
 H        -0.236169        -1.010116         1.115045
 H        -0.840497         0.197609        -0.010053
 H        -0.433644        -1.434146        -0.605477
 H         2.954917        -1.392792         0.605207
 H         2.468504        -1.769148        -1.070469
 H         5.198954         1.286028        -1.201527
 H         5.401933        -0.381727        -0.345722
 H         4.856446        -0.120181        -2.109263
 H         0.831333         1.925936        -1.291050
 H         3.118778         2.432915         0.456979
