19
Iteration:  2764charge 0 multiplicity 1
 C        -0.105158        -0.550061         0.048757
 C         1.298114        -0.040678        -0.049842
 C         2.631040        -0.964342        -0.249379
 C         3.361006         0.230424        -0.815099
 C         4.827590         0.193041        -1.068482
 O         2.593792         0.878742        -2.003632
 C         1.692103         1.156142        -0.935741
 C         2.679738         1.321210         0.157386
 O         1.877874         0.671002         1.140932
 H        -0.312238        -0.955241         1.046539
 H        -0.731149         0.261232        -0.157761
 H        -0.225044        -1.330440        -0.711651
 H         2.925456        -1.411624         0.791913
 H         2.553382        -1.658199        -1.075835
 H         5.242995         1.255080        -1.088409
 H         5.342958        -0.408778        -0.301808
 H         5.269639        -0.197323        -1.978116
 H         1.029925         1.999843        -1.180145
 H         3.084056         2.332427         0.494926
