19
Iteration:  1378charge 0 multiplicity 1
 C        -0.071546        -0.545452         0.018152
 C         1.313224        -0.099046        -0.005640
 C         2.558789        -0.965406        -0.325078
 C         3.420536         0.290191        -0.767032
 C         4.895980         0.213367        -1.103421
 O         2.634721         0.814296        -1.923807
 C         1.592991         1.196525        -0.928456
 C         2.643692         1.378780         0.175950
 O         1.874161         0.646888         1.141097
 H        -0.367538        -1.336115         0.771668
 H        -0.695715         0.334410         0.111222
 H        -0.107135        -0.945301        -1.020943
 H         2.980121        -1.329503         0.637452
 H         2.510880        -1.780656        -1.049526
 H         5.041594         1.141399        -1.775302
 H         5.567149         0.263443        -0.265034
 H         5.206324        -0.694031        -1.754515
 H         0.727087         1.868628        -1.306810
 H         3.093090         2.302130         0.497297
