19
Iteration:  4609
 C        -0.086974        -0.715508         0.137643
 C         1.259643        -0.020501        -0.112468
 C         2.603631        -0.940456        -0.430138
 C         3.379632         0.364782        -0.776889
 C         4.887887         0.206178        -0.995080
 O         2.582204         0.877896        -1.961122
 C         1.678988         1.279679        -0.928458
 C         2.714754         1.282760         0.175987
 O         1.869338         0.658333         1.121434
 H        -0.127015        -1.128552         1.230581
 H        -0.792147         0.025117        -0.045845
 H        -0.195289        -1.459912        -0.647243
 H         2.644110        -1.562050         0.475100
 H         2.535458        -1.556315        -1.343949
 H         5.560985         0.981991        -0.884787
 H         5.101674        -0.695977        -0.425856
 H         4.866936        -0.175562        -2.018940
 H         1.181338         2.120857        -1.237260
 H         3.090289         2.226900         0.575185
