19
Iteration:   722
 C        -0.000118        -0.691522        -0.032004
 C         1.282491        -0.003778         0.045927
 C         2.509363        -0.918201        -0.401468
 C         3.424267         0.268363        -0.731291
 C         4.843264         0.151026        -1.165529
 O         2.658226         0.908812        -1.881174
 C         1.653251         1.227548        -0.932011
 C         2.718403         1.344167         0.211609
 O         1.776733         0.675279         1.184058
 H        -0.075989        -1.388808         0.805376
 H        -0.884318        -0.010794         0.154947
 H        -0.114488        -1.280730        -1.005186
 H         3.015578        -1.591279         0.247569
 H         2.368584        -1.530686        -1.339169
 H         5.259492         1.221067        -1.210077
 H         5.437764        -0.315088        -0.435523
 H         4.961776        -0.407582        -2.127327
 H         0.979104         1.995740        -1.310022
 H         3.261185         2.270223         0.531320
