19
Iteration:  1199charge 0 multiplicity 1
 C        -0.094625        -0.652894         0.069231
 C         1.322193        -0.107205         0.020799
 C         2.539528        -0.950940        -0.317316
 C         3.338294         0.279820        -0.781511
 C         4.886017         0.220912        -1.108694
 O         2.658157         0.833176        -1.954093
 C         1.724113         1.305824        -0.922446
 C         2.699678         1.402145         0.207668
 O         1.824807         0.650346         1.067934
 H        -0.307375        -1.437235         0.744422
 H        -0.828541         0.182278         0.295219
 H        -0.325979        -1.162063        -0.895378
 H         2.957738        -1.337089         0.526755
 H         2.357168        -1.763915        -1.086829
 H         5.227712         1.125564        -1.672642
 H         5.509834         0.035986        -0.171542
 H         4.876975        -0.538544        -1.859824
 H         0.849291         1.764169        -1.226607
 H         3.317223         2.258663         0.603604
