19
Iteration:  4892
 C        -0.070690        -0.524025         0.068067
 C         1.265187        -0.100368        -0.093938
 C         2.608419        -0.944421        -0.489445
 C         3.420606         0.260304        -0.793502
 C         4.986101         0.293229        -1.026023
 O         2.534058         0.852891        -1.972941
 C         1.635182         1.213354        -0.886235
 C         2.684868         1.264908         0.255792
 O         1.820989         0.625965         1.177750
 H        -0.227007        -1.624415         0.365327
 H        -0.748698         0.106717         0.607022
 H        -0.558818        -0.491232        -0.903200
 H         2.847646        -1.573778         0.393809
 H         2.338921        -1.612159        -1.300161
 H         5.302976         1.113450        -1.663975
 H         5.586537         0.305837        -0.067128
 H         5.248921        -0.717522        -1.514466
 H         1.190817         2.071084        -1.306280
 H         3.319118         2.037129         0.787291
