19
Iteration:   158charge 0 multiplicity 1
 C        -0.139110        -0.664823         0.158249
 C         1.278269        -0.068968        -0.046050
 C         2.562255        -0.870644        -0.524732
 C         3.423953         0.275989        -0.820685
 C         4.952345         0.236926        -0.958776
 O         2.681769         0.944361        -1.965900
 C         1.549425         1.185352        -0.964098
 C         2.726669         1.311361         0.156478
 O         1.829387         0.586979         1.179366
 H        -0.060258        -1.379578         0.957443
 H        -0.774702         0.148630         0.473799
 H        -0.400061        -1.084278        -0.824013
 H         2.832822        -1.486779         0.282806
 H         2.444664        -1.569191        -1.396976
 H         5.155035         0.472286        -2.002035
 H         5.449275         1.013713        -0.391356
 H         5.310644        -0.766345        -0.679053
 H         0.731098         1.879205        -1.342699
 H         3.229561         2.242967         0.592001
