19
Iteration:  3567charge 0 multiplicity 1
 C        -0.067819        -0.691872        -0.002783
 C         1.255569        -0.043329        -0.168484
 C         2.524214        -0.942084        -0.362221
 C         3.494408         0.314865        -0.744223
 C         4.863833         0.142060        -1.230880
 O         2.676529         0.907969        -1.851959
 C         1.628627         1.301665        -0.864179
 C         2.662538         1.370788         0.324603
 O         1.843635         0.668327         1.164749
 H         0.042237        -1.534807         0.783805
 H        -0.896319        -0.073496         0.350057
 H        -0.297126        -1.238373        -0.984931
 H         2.676786        -1.589095         0.496861
 H         2.580618        -1.595875        -1.285191
 H         5.576941         1.003796        -1.105054
 H         5.264194        -0.778837        -0.570502
 H         4.683297        -0.289452        -2.254850
 H         0.896876         1.964651        -1.313986
 H         3.157440         2.329677         0.555649
