19
Iteration:  4588charge 0 multiplicity 1
 C        -0.092251        -0.613152         0.064058
 C         1.288412        -0.088644         0.010909
 C         2.505422        -0.934305        -0.384922
 C         3.362624         0.210765        -0.841280
 C         4.927272         0.250286        -1.115589
 O         2.690931         0.919063        -1.908295
 C         1.644550         1.193008        -0.941469
 C         2.645301         1.375655         0.178712
 O         1.887096         0.634408         1.142457
 H        -0.304388        -0.890804         1.212110
 H        -0.805310         0.108902        -0.202812
 H        -0.191535        -1.426563        -0.641157
 H         2.934773        -1.459431         0.507209
 H         2.241826        -1.736943        -1.103356
 H         4.999083         1.121800        -0.618749
 H         5.474451        -0.494819        -0.544784
 H         5.188687         0.336698        -2.161338
 H         0.786218         1.643562        -1.363999
 H         3.396453         2.054933         0.615354
