19
Iteration:   823
 C        -0.064807        -0.638348         0.146745
 C         1.306312        -0.080616        -0.025721
 C         2.449981        -0.909674        -0.451093
 C         3.474482         0.316913        -0.883539
 C         4.878979         0.195765        -0.977567
 O         2.636842         0.878616        -2.004510
 C         1.702297         1.302853        -0.987946
 C         2.633304         1.319455         0.222009
 O         1.861330         0.623168         1.134110
 H         0.032020        -1.579190         0.815604
 H        -0.725778         0.024253         0.628518
 H        -0.584619        -1.262937        -0.731481
 H         2.702887        -1.600563         0.368984
 H         2.395223        -1.548019        -1.405340
 H         5.376554         1.190958        -1.138929
 H         5.179749        -0.131473         0.066601
 H         5.298275        -0.544225        -1.703806
 H         0.971872         2.117008        -1.185734
 H         3.159350         2.068601         0.780276
