19
Iteration:  2732charge 0 multiplicity 1
 C        -0.074626        -0.547503        -0.045954
 C         1.296816        -0.023298         0.014892
 C         2.556695        -0.916196        -0.345981
 C         3.405762         0.268110        -0.713054
 C         4.925660         0.203312        -1.137632
 O         2.541574         0.717310        -1.933874
 C         1.666353         1.138578        -0.905923
 C         2.696729         1.398125         0.204712
 O         1.899355         0.696300         1.178717
 H        -0.542783        -1.049037         0.796343
 H        -0.789946         0.209845        -0.270699
 H        -0.157105        -1.296977        -0.840802
 H         2.829950        -1.658612         0.500127
 H         2.408137        -1.302083        -1.338358
 H         5.251071         1.254508        -1.449505
 H         5.543048        -0.085139        -0.275861
 H         5.001858        -0.471072        -2.056464
 H         0.943706         1.947408        -1.173131
 H         3.119944         2.409084         0.438038
