19
Iteration:  2117charge 0 multiplicity 1
 C        -0.088753        -0.635165         0.196512
 C         1.315915        -0.158794        -0.030994
 C         2.513415        -0.974508        -0.576513
 C         3.313698         0.272363        -0.887513
 C         4.779754         0.199916        -0.925639
 O         2.685302         0.967135        -1.950697
 C         1.713994         1.318781        -0.901936
 C         2.704734         1.361858         0.208004
 O         1.929372         0.594612         1.107509
 H        -0.150405        -1.623472         0.673811
 H        -0.622639         0.172918         0.754423
 H        -0.575634        -0.797255        -0.724121
 H         2.879799        -1.646612         0.143632
 H         2.222504        -1.498282        -1.626345
 H         5.133522         1.160788        -1.265228
 H         5.254913         0.162038         0.085996
 H         5.047005        -0.663326        -1.663950
 H         0.813906         1.930474        -1.365693
 H         3.476040         2.037865         0.585099
