19
Iteration:  1889charge 0 multiplicity 1
 C        -0.067424        -0.659763        -0.077112
 C         1.302073        -0.024567        -0.120318
 C         2.568388        -0.880744        -0.343827
 C         3.487003         0.245084        -0.733772
 C         4.931630         0.131349        -1.260718
 O         2.516592         0.871900        -1.862728
 C         1.684575         1.243210        -0.873802
 C         2.652520         1.345898         0.299136
 O         1.859542         0.711037         1.217722
 H        -0.165323        -1.531608         0.634395
 H        -1.021046        -0.074994         0.203610
 H        -0.178208        -0.986608        -1.098766
 H         2.680156        -1.343839         0.658296
 H         2.569382        -1.824589        -1.043340
 H         5.310273         1.067962        -1.554974
 H         5.474311        -0.184979        -0.410012
 H         4.889408        -0.648400        -2.084997
 H         0.843022         1.986651        -1.178976
 H         3.217066         2.248352         0.618421
