19
Iteration:   678charge 0 multiplicity 1
 C        -0.017826        -0.634332         0.058380
 C         1.346117        -0.092766        -0.056810
 C         2.606000        -0.940018        -0.403887
 C         3.391144         0.259390        -0.798939
 C         4.860399         0.107918        -1.071145
 O         2.650629         0.975935        -1.872817
 C         1.622960         1.274917        -0.931572
 C         2.620597         1.378059         0.190200
 O         1.823436         0.636135         1.131457
 H        -0.123995        -1.354052         0.865333
 H        -0.805399         0.166017         0.111277
 H        -0.214454        -1.338903        -0.833539
 H         2.894229        -1.622961         0.389747
 H         2.322185        -1.502163        -1.332506
 H         5.249021         1.167765        -0.963508
 H         5.357880        -0.533135        -0.396617
 H         4.998551        -0.310035        -2.094829
 H         0.736704         1.849731        -1.150926
 H         3.191460         2.286844         0.527140
