19
Iteration:  2854
 C        -0.040941        -0.666010         0.167628
 C         1.296739        -0.041868        -0.020267
 C         2.495161        -0.879655        -0.461176
 C         3.415951         0.326949        -0.880678
 C         4.869695         0.104985        -0.807212
 O         2.592171         0.823623        -2.059735
 C         1.653581         1.196849        -0.971420
 C         2.661124         1.466817         0.133407
 O         1.932168         0.652601         1.142262
 H        -0.059362        -1.578621         0.632008
 H        -0.655995         0.018740         0.785845
 H        -0.606811        -0.818265        -0.760060
 H         3.035143        -1.357174         0.380641
 H         2.470583        -1.595511        -1.356559
 H         5.181766         0.886832        -1.521882
 H         5.244050         0.018667         0.192586
 H         5.047895        -0.767923        -1.583104
 H         0.907546         1.995194        -1.311880
 H         3.173754         2.317733         0.385407
