19
Iteration:  4716charge 0 multiplicity 1
 C        -0.182455        -0.566591         0.052460
 C         1.286000        -0.174708        -0.021662
 C         2.516661        -0.944641        -0.445285
 C         3.384816         0.250813        -0.743253
 C         4.856652         0.296295        -1.043335
 O         2.653230         0.856474        -2.002764
 C         1.726272         1.199980        -0.908024
 C         2.696508         1.334730         0.194458
 O         1.946509         0.638004         1.189392
 H        -0.430444        -1.618653         0.275637
 H        -0.776071         0.060786         0.667222
 H        -0.545761        -0.537582        -0.994716
 H         2.863941        -1.634696         0.312741
 H         2.373056        -1.461692        -1.409945
 H         5.048214         1.117785        -1.758761
 H         5.284813         0.598331        -0.063231
 H         5.337049        -0.655373        -1.439072
 H         1.081591         2.008351        -0.998123
 H         3.101992         2.289491         0.491616
