19
Iteration:   481charge 0 multiplicity 1
 C        -0.098005        -0.646229         0.194586
 C         1.310582        -0.052308        -0.092970
 C         2.558615        -0.945212        -0.589794
 C         3.424862         0.264752        -0.792922
 C         4.929380         0.266735        -0.895732
 O         2.610856         0.943401        -1.945716
 C         1.630077         1.187284        -0.936642
 C         2.668272         1.304465         0.096234
 O         1.870074         0.619113         1.136172
 H        -0.198652        -1.371427         1.018072
 H        -0.854579         0.196779         0.544710
 H        -0.608662        -1.029436        -0.670582
 H         2.961881        -1.534134         0.353545
 H         2.399182        -1.567245        -1.457630
 H         5.446082         1.229263        -0.859060
 H         5.198575        -0.467715        -0.060731
 H         5.211085        -0.198643        -1.841011
 H         0.808564         1.825221        -1.237451
 H         3.200554         2.199462         0.455306
