19
Iteration:   616charge 0 multiplicity 1
 C        -0.051195        -0.615947         0.198362
 C         1.324950        -0.087239        -0.136127
 C         2.427046        -0.962289        -0.506849
 C         3.382563         0.300964        -0.891221
 C         4.816912         0.331220        -0.868485
 O         2.685972         0.927538        -2.012645
 C         1.711006         1.209967        -0.916951
 C         2.714501         1.260090         0.174706
 O         1.847607         0.578049         1.165947
 H         0.251182        -1.529284         0.740440
 H        -0.513202         0.091778         0.789119
 H        -0.730217        -0.766793        -0.724291
 H         2.732312        -1.654418         0.191202
 H         2.159094        -1.562107        -1.513699
 H         5.304820         1.190208        -1.365955
 H         5.061166         0.215202         0.164548
 H         5.301947        -0.528078        -1.397882
 H         0.963047         1.933363        -1.302362
 H         3.365945         2.113309         0.411648
