19
Iteration:  2816
 C         0.012983        -0.725879         0.339272
 C         1.297395        -0.043291        -0.054807
 C         2.427137        -0.881177        -0.542028
 C         3.352528         0.270036        -0.726949
 C         4.895873         0.084603        -0.870296
 O         2.697445         0.912535        -2.064685
 C         1.703962         1.245154        -1.030675
 C         2.642907         1.412103         0.094030
 O         1.787873         0.701451         1.069302
 H         0.360155        -1.628087         1.005186
 H        -0.548166         0.010209         0.921920
 H        -0.533548        -1.060661        -0.549489
 H         2.806824        -1.524305         0.299183
 H         2.233142        -1.423379        -1.455091
 H         5.412827         1.011554        -1.173420
 H         5.543763        -0.365854        -0.067108
 H         5.137296        -0.593770        -1.612037
 H         0.915190         1.894487        -1.309086
 H         3.251210         2.358652         0.444500
