19
Iteration:  1833charge 0 multiplicity 1
 C        -0.161052        -0.636833         0.207660
 C         1.258078        -0.072337        -0.139963
 C         2.513443        -0.918090        -0.500472
 C         3.411409         0.271756        -0.854078
 C         4.927838         0.213419        -0.971351
 O         2.710672         0.834590        -1.923508
 C         1.596496         1.274764        -0.946202
 C         2.623014         1.403315         0.199898
 O         1.967854         0.616226         1.130771
 H         0.127163        -1.338136         1.001013
 H        -0.764369         0.235526         0.456553
 H        -0.619000        -1.359769        -0.492505
 H         2.753226        -1.582605         0.276542
 H         2.250874        -1.494556        -1.528768
 H         5.316869         1.230142        -0.768844
 H         5.331582        -0.467480        -0.296493
 H         5.184835        -0.068072        -2.029216
 H         0.691138         1.770749        -1.359872
 H         3.188528         2.264423         0.568279
