19
Iteration:  3726
 C        -0.110471        -0.777110         0.005479
 C         1.336762        -0.017303         0.006927
 C         2.592269        -0.984709        -0.456107
 C         3.383015         0.295821        -0.736835
 C         4.923096         0.080882        -1.087571
 O         2.572192         1.001909        -1.951463
 C         1.684791         1.321005        -0.852274
 C         2.729121         1.370048         0.197356
 O         1.815564         0.673448         1.139131
 H        -0.213919        -1.576953         0.757895
 H        -0.884217        -0.013572         0.256424
 H        -0.256228        -1.193587        -0.953016
 H         2.922132        -1.452285         0.542406
 H         2.525107        -1.644429        -1.351900
 H         5.326001         1.214237        -1.131467
 H         5.244351        -0.564745        -0.230994
 H         4.807921        -0.541809        -2.039516
 H         0.878158         2.047757        -1.146199
 H         3.325728         2.298905         0.463128
