19
Iteration:  1890
 C        -0.067628        -0.661613        -0.076764
 C         1.301866        -0.027384        -0.122832
 C         2.564542        -0.878117        -0.338317
 C         3.487097         0.244665        -0.721734
 C         4.927003         0.134184        -1.262834
 O         2.521350         0.874554        -1.867710
 C         1.685341         1.247099        -0.864772
 C         2.653074         1.342888         0.284222
 O         1.861504         0.708058         1.211614
 H        -0.165871        -1.527165         0.620213
 H        -1.026355        -0.115341         0.203270
 H        -0.164608        -0.955703        -1.066631
 H         2.690072        -1.384593         0.689341
 H         2.557902        -1.777896        -1.041921
 H         5.290576         1.034868        -1.576290
 H         5.495439        -0.193958        -0.403893
 H         4.889427        -0.649329        -2.060526
 H         0.844377         2.008518        -1.149603
 H         3.190406         2.258747         0.617775
