19
Iteration:  3642charge 0 multiplicity 1
 C        -0.055993        -0.563249         0.148754
 C         1.301182        -0.074173        -0.040007
 C         2.468726        -0.946979        -0.551816
 C         3.445471         0.351563        -0.823109
 C         4.854749         0.272226        -0.930268
 O         2.626744         0.887554        -1.987434
 C         1.644249         1.249626        -0.977757
 C         2.672350         1.282973         0.281717
 O         1.900033         0.519688         1.101390
 H         0.123844        -1.413444         0.911971
 H        -0.699265         0.216533         0.551013
 H        -0.599798        -0.867835        -0.774536
 H         2.789324        -1.735040         0.148095
 H         2.441460        -1.582021        -1.472885
 H         5.295565         1.101836        -1.354873
 H         5.216606         0.111614         0.125611
 H         5.088658        -0.559872        -1.571724
 H         0.999555         2.064921        -1.212179
 H         3.289108         2.116273         0.622395
