19
Iteration:   989charge 0 multiplicity 1
 C        -0.074438        -0.698582         0.193026
 C         1.257077        -0.029472        -0.113295
 C         2.426399        -0.963229        -0.484955
 C         3.403993         0.268594        -0.803890
 C         4.889673         0.203913        -0.920681
 O         2.687232         0.955428        -1.974943
 C         1.623791         1.231640        -0.936569
 C         2.666965         1.349807         0.117793
 O         1.941815         0.656445         1.096674
 H         0.113396        -1.696388         0.679115
 H        -0.536967         0.128827         0.752962
 H        -0.533337        -0.876055        -0.747160
 H         2.835948        -1.539592         0.392533
 H         2.331765        -1.692848        -1.206735
 H         5.404356         0.896305        -1.465562
 H         5.397892         0.104705         0.158727
 H         5.129220        -0.692240        -1.463951
 H         0.699597         1.798908        -1.073521
 H         3.115585         2.267385         0.491411
