19
Iteration:  1590
 C        -0.134360        -0.745837         0.178820
 C         1.296225        -0.006451        -0.084185
 C         2.537398        -0.936288        -0.433472
 C         3.375959         0.276521        -0.853429
 C         4.897968         0.170277        -1.047586
 O         2.723837         0.881594        -1.939050
 C         1.619672         1.222200        -0.915382
 C         2.701116         1.386342         0.176514
 O         1.867748         0.743452         1.088170
 H        -0.147106        -1.498082         0.948813
 H        -1.065968        -0.182788         0.448282
 H        -0.343938        -1.289100        -0.789846
 H         2.833901        -1.263512         0.588295
 H         2.406156        -1.761510        -1.172328
 H         5.259989         1.156285        -1.368930
 H         5.374263        -0.166221        -0.031499
 H         5.192044        -0.537833        -1.771459
 H         0.739744         1.728923        -1.174179
 H         3.105239         2.254968         0.765163
