19
Iteration:  2325charge 0 multiplicity 1
 C        -0.196509        -0.633973         0.319577
 C         1.285492        -0.082541        -0.014006
 C         2.475284        -0.898851        -0.609013
 C         3.385333         0.332763        -0.916938
 C         4.879361         0.228417        -0.847616
 O         2.694829         0.947382        -2.036274
 C         1.623985         1.296935        -0.980031
 C         2.733725         1.291385         0.125854
 O         1.942985         0.504180         1.110036
 H        -0.062961        -1.433281         1.139946
 H        -0.717925         0.342013         0.517450
 H        -0.671254        -1.190140        -0.456432
 H         2.777221        -1.538939         0.213814
 H         2.311443        -1.424997        -1.620808
 H         5.388957         1.126163        -0.754479
 H         5.198938        -0.297744         0.067331
 H         5.402491        -0.407646        -1.580685
 H         0.923753         2.113075        -1.294992
 H         3.348545         1.912000         0.733542
