19
Iteration:  4777
 C        -0.089922        -0.748484         0.173685
 C         1.283243        -0.102886        -0.019754
 C         2.493607        -0.873300        -0.581676
 C         3.439030         0.304494        -0.761424
 C         4.885618         0.131005        -1.033323
 O         2.700414         0.946587        -1.910358
 C         1.639083         1.244267        -1.004023
 C         2.649111         1.401759         0.231474
 O         1.838624         0.690761         1.150670
 H        -0.146143        -1.152562         1.180490
 H        -1.040533        -0.093361        -0.012355
 H        -0.096668        -1.501691        -0.662324
 H         2.804056        -1.424448         0.332531
 H         2.353304        -1.553601        -1.453754
 H         5.629347         0.966801        -0.878584
 H         5.224743        -0.722540        -0.469569
 H         4.973921        -0.257779        -2.013793
 H         0.900670         2.069256        -1.435940
 H         3.516692         2.033877         0.602560
