19
Iteration:  3576charge 0 multiplicity 1
 C        -0.052139        -0.730007        -0.016039
 C         1.308478         0.016769        -0.112809
 C         2.619517        -0.932147        -0.418999
 C         3.381858         0.262686        -0.740737
 C         4.845030         0.065308        -1.219752
 O         2.640606         0.903041        -1.826760
 C         1.688496         1.318908        -0.858382
 C         2.651633         1.397379         0.273695
 O         1.802232         0.674802         1.140549
 H         0.143780        -1.553852         0.785375
 H        -0.884010        -0.001934         0.151897
 H        -0.406062        -1.143793        -0.980822
 H         2.975035        -1.335547         0.584520
 H         2.556087        -1.754514        -1.154199
 H         5.314584         1.003808        -1.190756
 H         5.360462        -0.711686        -0.549548
 H         4.870533        -0.083326        -2.301892
 H         1.046042         2.137908        -1.043401
 H         2.964737         2.250458         0.889324
