19
Iteration:  3081
 C        -0.083944        -0.609642        -0.044719
 C         1.320526        -0.059987         0.028793
 C         2.524213        -0.915799        -0.292720
 C         3.453270         0.273232        -0.783514
 C         4.894915         0.174550        -1.124333
 O         2.546695         0.825240        -1.955018
 C         1.651115         1.215018        -0.942457
 C         2.755665         1.297971         0.230027
 O         1.854096         0.697741         1.173217
 H        -0.410259        -1.299984         0.687113
 H        -0.796751         0.293581         0.028357
 H        -0.098574        -0.960877        -1.122506
 H         3.021680        -1.255510         0.579948
 H         2.549992        -1.561719        -1.160997
 H         5.042097         1.199546        -1.641048
 H         5.543240         0.021064        -0.293652
 H         5.046824        -0.670371        -1.728416
 H         0.765983         1.910164        -1.193841
 H         3.075854         2.283119         0.597452
