19
Iteration:  4560
 C        -0.140465        -0.550811         0.082377
 C         1.305153        -0.131431        -0.051143
 C         2.571983        -0.950790        -0.465963
 C         3.403727         0.332977        -0.663225
 C         4.942390         0.286352        -1.134284
 O         2.608073         0.749534        -1.976749
 C         1.743851         1.167225        -0.854804
 C         2.666169         1.378258         0.161454
 O         1.803395         0.632361         1.175150
 H        -0.104327        -0.911598         1.057028
 H        -0.712367         0.447502        -0.049572
 H        -0.485462        -1.284071        -0.668696
 H         2.903177        -1.644746         0.323576
 H         2.430871        -1.486036        -1.402710
 H         5.356219         1.308420        -0.784805
 H         5.523338        -0.540404        -0.629025
 H         4.837088         0.294681        -2.237255
 H         0.882160         1.899100        -1.107433
 H         3.213415         2.251572         0.525812
