19
Iteration:  1930charge 0 multiplicity 1
 C        -0.025440        -0.664322         0.130133
 C         1.279683        -0.051555        -0.098569
 C         2.512427        -0.928948        -0.504058
 C         3.401568         0.261602        -0.825998
 C         4.904848         0.086144        -1.049407
 O         2.621378         0.945064        -1.937181
 C         1.655511         1.272463        -0.939114
 C         2.590252         1.332657         0.268130
 O         1.897891         0.695985         1.189590
 H         0.166269        -1.672237         0.581537
 H        -0.701580         0.040996         0.668153
 H        -0.407362        -0.928833        -0.948431
 H         2.902183        -1.535290         0.219187
 H         2.330253        -1.478579        -1.502675
 H         5.418878         1.011854        -1.584592
 H         5.373698         0.121190        -0.065906
 H         5.209612        -0.892646        -1.561054
 H         0.836611         1.962481        -1.139021
 H         3.077292         2.257931         0.614171
