19
Iteration:  4113charge 0 multiplicity 1
 C        -0.113101        -0.591427         0.096066
 C         1.363678        -0.057093        -0.075657
 C         2.593788        -0.988654        -0.386803
 C         3.414589         0.179961        -0.848643
 C         4.872676         0.314677        -1.087488
 O         2.597469         0.859168        -1.896691
 C         1.693558         1.199447        -0.891935
 C         2.698381         1.304578         0.227509
 O         1.765032         0.692272         1.097427
 H        -0.022564        -1.402692         0.821500
 H        -0.820962         0.159634         0.480679
 H        -0.411626        -0.877733        -0.909206
 H         2.938193        -1.475424         0.601368
 H         2.272580        -1.702450        -1.195230
 H         5.274538         1.304077        -1.151186
 H         5.524131        -0.147901        -0.216419
 H         5.296639        -0.193144        -1.987436
 H         0.999297         1.815559        -1.416304
 H         3.204623         2.192426         0.454993
