19
Iteration:  1081charge 0 multiplicity 1
 C        -0.078470        -0.616657         0.111153
 C         1.341564        -0.046897        -0.147716
 C         2.535413        -0.913933        -0.453565
 C         3.437759         0.241456        -0.768955
 C         4.928364         0.200314        -1.079822
 O         2.614012         0.831858        -1.922429
 C         1.625888         1.191938        -0.897850
 C         2.659188         1.371944         0.196449
 O         1.835196         0.686709         1.187260
 H        -0.095268        -1.055297         1.077305
 H        -0.732485         0.259824         0.159690
 H        -0.470267        -1.407102        -0.564951
 H         2.805835        -1.521190         0.352638
 H         2.498439        -1.577408        -1.363969
 H         5.432986         1.206526        -0.936178
 H         5.285489        -0.409158        -0.377107
 H         5.109089        -0.159632        -2.093464
 H         0.823273         1.703595        -1.354738
 H         3.101577         2.359496         0.440208
