19
Iteration:   529
 C        -0.077352        -0.714804         0.014999
 C         1.276632        -0.066076        -0.118862
 C         2.522897        -0.872101        -0.394795
 C         3.447419         0.307249        -0.706899
 C         4.918183         0.128251        -1.150135
 O         2.648921         0.935734        -1.897250
 C         1.637313         1.201941        -0.831554
 C         2.702032         1.328398         0.234204
 O         1.830593         0.696425         1.129209
 H        -0.177405        -1.307932         0.940740
 H        -0.933412        -0.178702         0.139256
 H        -0.316074        -1.448617        -0.901341
 H         2.766626        -1.352426         0.456739
 H         2.387087        -1.663234        -1.290423
 H         5.186008         1.237449        -1.076228
 H         5.561005        -0.455221        -0.546082
 H         5.012445        -0.092733        -2.263979
 H         0.908153         1.944523        -1.176307
 H         3.152263         2.287467         0.539018
