19
Iteration:   725
 C        -0.008516        -0.683565        -0.037393
 C         1.274989        -0.036504         0.040473
 C         2.507088        -0.939713        -0.414581
 C         3.414095         0.267260        -0.744709
 C         4.854010         0.165182        -1.164050
 O         2.653811         0.910525        -1.878496
 C         1.674655         1.225005        -0.934779
 C         2.718802         1.382859         0.223024
 O         1.787033         0.681854         1.186575
 H        -0.042747        -1.419582         0.811871
 H        -0.735746         0.024884         0.182618
 H        -0.185968        -1.320085        -0.983325
 H         2.931971        -1.614863         0.314560
 H         2.342503        -1.573526        -1.366195
 H         5.246406         1.185360        -1.223918
 H         5.407077        -0.340183        -0.362901
 H         4.934665        -0.431533        -2.079751
 H         0.946532         1.997771        -1.277750
 H         3.220516         2.287474         0.538946
