19
Iteration:   256
 C         0.023212        -0.707698         0.157382
 C         1.384631        -0.027737        -0.080770
 C         2.496630        -0.908660        -0.385931
 C         3.380410         0.362231        -0.781674
 C         4.845050         0.202213        -0.970355
 O         2.695831         0.878707        -2.011832
 C         1.585028         1.216792        -0.935509
 C         2.635616         1.365926         0.141554
 O         1.816639         0.590505         1.104286
 H         0.071306        -1.526002         0.860676
 H        -0.535688         0.091913         0.566085
 H        -0.424164        -0.969855        -0.816079
 H         2.815303        -1.569115         0.296674
 H         2.299708        -1.427251        -1.365622
 H         5.390555         1.115750        -0.720081
 H         5.209339        -0.524970        -0.298633
 H         5.034256        -0.126947        -1.989624
 H         0.858569         2.009282        -1.254021
 H         3.216519         2.217753         0.591767
