19
Iteration:  2329charge 0 multiplicity 1
 C        -0.169335        -0.630957         0.336867
 C         1.312992        -0.036789        -0.017479
 C         2.485260        -0.884428        -0.637219
 C         3.407119         0.337764        -0.911954
 C         4.869886         0.207564        -0.854963
 O         2.689359         0.944710        -2.019025
 C         1.631749         1.288078        -0.969801
 C         2.724838         1.295056         0.115531
 O         1.906575         0.483235         1.112335
 H        -0.232379        -1.359470         1.114249
 H        -0.795224         0.200830         0.460647
 H        -0.593486        -1.268644        -0.477244
 H         2.770270        -1.617821         0.277543
 H         2.256553        -1.368990        -1.529705
 H         5.454807         1.180028        -0.710195
 H         5.214454        -0.266107         0.110035
 H         5.182104        -0.417637        -1.674832
 H         0.939766         1.981190        -1.337824
 H         3.463416         2.009707         0.622429
