19
Iteration:  2382
 C        -0.092509        -0.684450         0.005702
 C         1.293100        -0.015867         0.033646
 C         2.509953        -0.815461        -0.404683
 C         3.437884         0.338113        -0.779928
 C         4.843958         0.044698        -1.206881
 O         2.678329         0.952322        -1.925934
 C         1.716459         1.237245        -0.892062
 C         2.677738         1.291016         0.235970
 O         1.806402         0.630329         1.161041
 H        -0.310496        -1.254540         1.001038
 H        -1.028573        -0.194096         0.039309
 H        -0.089951        -1.458354        -0.780935
 H         3.087495        -1.378632         0.531091
 H         2.529045        -1.477533        -1.216101
 H         5.249387         1.006312        -1.576983
 H         5.377097        -0.244306        -0.252634
 H         4.865220        -0.563691        -2.037527
 H         1.259805         2.136075        -1.065365
 H         3.007923         2.202869         0.787208
