19
Iteration:  3161
 C        -0.079018        -0.695435         0.328647
 C         1.360881        -0.103903        -0.099522
 C         2.438801        -0.871415        -0.587134
 C         3.408197         0.254296        -0.819527
 C         4.853405         0.098798        -0.812994
 O         2.670613         0.973429        -1.988858
 C         1.637946         1.233559        -1.064041
 C         2.595831         1.396501         0.133933
 O         1.929216         0.664839         1.096633
 H         0.029915        -1.504612         1.156760
 H        -0.574099         0.297432         0.601987
 H        -0.561598        -1.189479        -0.520338
 H         2.907496        -1.604733         0.197034
 H         2.266157        -1.626857        -1.447118
 H         5.352603         0.996914        -0.666360
 H         5.248661        -0.531425        -0.016321
 H         5.267142        -0.030167        -1.843482
 H         0.848590         1.935894        -1.326379
 H         3.367264         2.136065         0.270709
