19
Iteration:  2725charge 0 multiplicity 1
 C        -0.074612        -0.524281        -0.020806
 C         1.294225        -0.060311        -0.000593
 C         2.490188        -0.959611        -0.328157
 C         3.412492         0.272100        -0.728835
 C         4.906109         0.213359        -1.143296
 O         2.594769         0.756034        -1.915895
 C         1.692875         1.162877        -0.928636
 C         2.703097         1.425005         0.188397
 O         1.858719         0.697652         1.198493
 H        -0.119633        -1.181417         0.892512
 H        -1.085983         0.061881        -0.175198
 H        -0.069926        -1.327619        -0.836273
 H         3.035307        -1.637116         0.199092
 H         2.420979        -1.498815        -1.319326
 H         5.167172         1.178381        -1.440789
 H         5.522164         0.000733        -0.306813
 H         4.946893        -0.644775        -1.926309
 H         0.947896         1.959502        -1.202068
 H         3.227709         2.315564         0.238605
