19
Iteration:  1366
 C        -0.112412        -0.556682        -0.002199
 C         1.337777        -0.015624        -0.033274
 C         2.684651        -0.866667        -0.339897
 C         3.392177         0.334222        -0.808563
 C         4.864901         0.220500        -1.084633
 O         2.619071         0.757287        -1.912292
 C         1.600215         1.149217        -0.923552
 C         2.701571         1.351089         0.143517
 O         1.816253         0.623516         1.178561
 H        -0.187450        -1.389808         0.786286
 H        -0.801859         0.208674         0.317726
 H        -0.600691        -0.980313        -0.942430
 H         3.044316        -1.381124         0.544695
 H         2.499608        -1.562002        -1.263396
 H         5.427359         0.988911        -1.821132
 H         5.351906         0.235256        -0.182429
 H         4.965733        -0.864134        -1.476030
 H         0.761214         1.926921        -1.108678
 H         3.290441         2.165133         0.560838
