19
Iteration:  1828charge 0 multiplicity 1
 C        -0.136840        -0.642307         0.252372
 C         1.236361        -0.059771        -0.115970
 C         2.512189        -0.904225        -0.540554
 C         3.404823         0.305731        -0.874642
 C         4.904754         0.214439        -0.972657
 O         2.705119         0.824493        -1.953379
 C         1.665157         1.266022        -0.962312
 C         2.611726         1.386288         0.207184
 O         1.937815         0.583650         1.118242
 H         0.094822        -1.293543         1.114496
 H        -0.803085         0.168928         0.605678
 H        -0.586763        -1.315810        -0.561683
 H         2.714809        -1.615703         0.340040
 H         2.277285        -1.395837        -1.385567
 H         5.293941         1.255195        -0.727091
 H         5.291056        -0.535460        -0.153811
 H         5.447481        -0.052227        -1.885915
 H         0.874530         1.941638        -1.308828
 H         3.076821         2.350707         0.487062
