19
Iteration:   446charge 0 multiplicity 1
 C        -0.045585        -0.655472         0.216970
 C         1.305591        -0.089924        -0.025982
 C         2.559923        -0.886717        -0.606198
 C         3.404343         0.287296        -0.726865
 C         4.845294         0.251672        -0.863112
 O         2.602461         0.943038        -1.972773
 C         1.692939         1.240204        -1.057566
 C         2.658281         1.351419         0.175985
 O         1.878196         0.521841         1.065542
 H        -0.042866        -1.585739         0.825242
 H        -0.517212         0.342241         0.755038
 H        -0.662429        -0.780939        -0.616359
 H         2.789302        -1.708065         0.270560
 H         2.254433        -1.526112        -1.370994
 H         5.275970         1.147261        -1.260545
 H         5.421291         0.129603         0.129273
 H         5.039459        -0.654293        -1.446417
 H         0.802388         1.806623        -1.376632
 H         3.243733         2.243412         0.331911
