19
Iteration:  3314charge 0 multiplicity 1
 C        -0.047751        -0.689267         0.299743
 C         1.269955        -0.077166        -0.115519
 C         2.439704        -0.872860        -0.558400
 C         3.455997         0.296546        -0.861572
 C         4.926377         0.226436        -0.881741
 O         2.623146         0.896391        -1.907256
 C         1.640166         1.259186        -0.974950
 C         2.691894         1.397693         0.169965
 O         1.875125         0.567865         1.009829
 H        -0.105250        -1.373064         1.215731
 H        -0.797383         0.098475         0.570241
 H        -0.614619        -1.143784        -0.489720
 H         2.844618        -1.813765        -0.018395
 H         2.138809        -1.296161        -1.565096
 H         5.433847         1.162630        -0.773029
 H         5.218521        -0.402025         0.093868
 H         5.415530        -0.500884        -1.645078
 H         0.957880         1.994410        -1.321324
 H         3.362132         2.196508         0.443756
