19
Iteration:  2369charge 0 multiplicity 1
 C        -0.035580        -0.696605         0.103526
 C         1.287099        -0.045122        -0.078723
 C         2.525957        -0.923558        -0.500947
 C         3.399825         0.299627        -0.798463
 C         4.857441         0.085165        -1.124192
 O         2.664191         0.954123        -1.872727
 C         1.689682         1.316543        -0.908421
 C         2.696504         1.389055         0.269626
 O         1.798142         0.635470         1.162376
 H        -0.085057        -1.197100         1.162833
 H        -0.812944         0.078284        -0.162766
 H        -0.122053        -1.442916        -0.687166
 H         2.878144        -1.555402         0.352978
 H         2.276120        -1.532216        -1.397685
 H         5.379634         0.941335        -1.473266
 H         5.396392        -0.453949        -0.300666
 H         4.905050        -0.692726        -1.910001
 H         0.827800         1.888596        -1.238879
 H         3.250157         2.274793         0.567800
