19
Iteration:  3720
 C        -0.071419        -0.725245         0.043211
 C         1.330249        -0.037776        -0.064671
 C         2.512430        -0.985763        -0.461724
 C         3.435719         0.312464        -0.802093
 C         4.916145         0.110623        -1.047187
 O         2.573183         0.963228        -1.893895
 C         1.675632         1.308628        -0.884358
 C         2.702642         1.368356         0.222675
 O         1.833408         0.669925         1.133252
 H        -0.055377        -1.559223         0.798716
 H        -0.838383        -0.009748         0.322359
 H        -0.124589        -1.164638        -1.014698
 H         2.968230        -1.489068         0.371682
 H         2.363257        -1.562204        -1.408716
 H         5.322645         1.030641        -1.299077
 H         5.175989        -0.482608        -0.105758
 H         4.973214        -0.440978        -1.965749
 H         0.797326         1.924961        -1.004360
 H         3.236864         2.249740         0.499374
