19
Iteration:  1655
 C        -0.115967        -0.697201         0.272833
 C         1.278451        -0.147559        -0.028289
 C         2.577323        -0.971245        -0.460158
 C         3.442548         0.335412        -0.791653
 C         4.915465         0.143440        -0.847176
 O         2.622132         0.967186        -2.078035
 C         1.600100         1.306285        -0.995499
 C         2.633242         1.322911         0.063328
 O         1.895382         0.673701         1.074795
 H         0.030666        -1.307540         1.148831
 H        -0.679890         0.190520         0.646231
 H        -0.615437        -1.107295        -0.667918
 H         2.910667        -1.750836         0.401903
 H         2.521192        -1.515714        -1.467425
 H         5.444949         1.096170        -0.683587
 H         5.277713        -0.591459        -0.047963
 H         5.142017        -0.189612        -1.804728
 H         0.823359         1.994942        -1.156965
 H         3.231745         2.260905         0.203223
