19
Iteration:  2714
 C        -0.084226        -0.636375         0.061348
 C         1.329784        -0.021497        -0.016351
 C         2.497980        -0.996120        -0.392727
 C         3.406944         0.264321        -0.779465
 C         4.832926         0.200769        -1.104598
 O         2.695478         0.821410        -1.900518
 C         1.699200         1.236447        -0.941101
 C         2.695910         1.369061         0.144326
 O         1.820982         0.734530         1.183326
 H        -0.096635        -1.266358         0.979562
 H        -0.912851         0.174035         0.172745
 H        -0.210064        -1.265730        -0.877314
 H         2.826008        -1.487911         0.488237
 H         2.190120        -1.659904        -1.237125
 H         5.134994         1.041777        -1.662568
 H         5.465941         0.013302        -0.274329
 H         5.079201        -0.625665        -1.849953
 H         0.835202         1.823659        -1.323242
 H         3.227511         2.196954         0.498230
