19
Iteration:  1769
 C        -0.037861        -0.706000         0.178729
 C         1.323141        -0.018043         0.031452
 C         2.493824        -0.829092        -0.485575
 C         3.382753         0.413631        -0.798921
 C         4.901569         0.130168        -0.937876
 O         2.666593         0.852401        -2.022464
 C         1.620735         1.251744        -0.989838
 C         2.630001         1.360268         0.140426
 O         1.896719         0.594791         1.148758
 H         0.001419        -1.634680         0.816719
 H        -0.865962        -0.037759         0.522711
 H        -0.419181        -1.049809        -0.764199
 H         2.840673        -1.548904         0.240427
 H         2.212886        -1.426928        -1.483419
 H         5.492485         0.886844        -1.447715
 H         5.405592        -0.008111         0.007494
 H         4.919011        -0.845476        -1.543536
 H         0.786906         1.892800        -1.461113
 H         3.188775         2.225155         0.521694
