19
Iteration:    60charge 0 multiplicity 1
 C        -0.085100        -0.710297        -0.074443
 C         1.291169        -0.043116        -0.044670
 C         2.541557        -0.922722        -0.454551
 C         3.419158         0.385986        -0.737220
 C         4.877979         0.183359        -1.117918
 O         2.610744         0.886469        -1.919277
 C         1.693591         1.237960        -0.850380
 C         2.692058         1.380916         0.263118
 O         1.858108         0.555308         1.214633
 H        -0.228713        -1.427838         0.724416
 H        -0.698497         0.196659         0.171485
 H        -0.298572        -1.103234        -1.056739
 H         2.711582        -1.538676         0.431458
 H         2.647594        -1.461692        -1.408916
 H         5.203207        -0.868227        -1.165025
 H         5.064468         0.673746        -2.125093
 H         5.462542         0.719783        -0.364519
 H         0.881787         1.950324        -1.115374
 H         2.931348         2.477707         0.474358
