19
Iteration:  4967
 C        -0.057623        -0.696545         0.160398
 C         1.232536        -0.064301        -0.093763
 C         2.546088        -0.924952        -0.549417
 C         3.407162         0.322539        -0.818514
 C         5.025694         0.064896        -1.052418
 O         2.668674         1.011890        -1.876698
 C         1.631525         1.330519        -0.954537
 C         2.605563         1.282983         0.182875
 O         1.831677         0.669585         1.141813
 H        -0.079684        -1.232002         1.193191
 H        -1.008571        -0.192815         0.340481
 H        -0.403678        -1.495456        -0.522421
 H         2.830512        -1.623825         0.263091
 H         2.369825        -1.428162        -1.495247
 H         5.587809         0.905805        -1.399304
 H         5.332813        -0.136773        -0.007327
 H         5.203046        -0.854258        -1.668815
 H         0.788089         2.067764        -0.991338
 H         3.026867         2.150299         0.636331
