19
Iteration:  1770
 C        -0.036163        -0.707442         0.180439
 C         1.316798        -0.023672         0.032576
 C         2.486346        -0.830946        -0.502472
 C         3.383746         0.408464        -0.809045
 C         4.897658         0.140389        -0.936294
 O         2.671483         0.851958        -2.015923
 C         1.623766         1.249416        -0.990649
 C         2.632950         1.365448         0.138055
 O         1.896876         0.592936         1.151520
 H         0.009527        -1.621498         0.850412
 H        -0.879999        -0.043118         0.553072
 H        -0.389786        -1.023570        -0.754968
 H         2.838672        -1.550730         0.260868
 H         2.215575        -1.424539        -1.446435
 H         5.511050         0.864215        -1.430880
 H         5.406533        -0.038022         0.043119
 H         4.920178        -0.846448        -1.537630
 H         0.790594         1.915245        -1.470371
 H         3.168121         2.270204         0.501484
