19
Iteration:  3043charge 0 multiplicity 1
 C        -0.092289        -0.526778         0.091449
 C         1.318640        -0.068391        -0.019439
 C         2.542319        -0.921360        -0.391575
 C         3.395731         0.315657        -0.755308
 C         4.892882         0.204487        -1.024223
 O         2.601572         0.805532        -1.963612
 C         1.650564         1.145369        -0.970530
 C         2.694153         1.333606         0.185536
 O         1.883470         0.632992         1.131426
 H        -0.303871        -1.573383         0.499537
 H        -0.680594         0.246636         0.545440
 H        -0.390196        -0.525668        -0.948945
 H         2.813162        -1.583027         0.465499
 H         2.277395        -1.588828        -1.243848
 H         5.106974         1.012801        -1.741188
 H         5.538548         0.530458        -0.109795
 H         5.293443        -0.684992        -1.637092
 H         0.979645         1.872266        -1.353897
 H         3.123807         2.315408         0.542232
