19
Iteration:  2143
 C        -0.098878        -0.531085         0.310785
 C         1.220586        -0.038558        -0.109560
 C         2.419552        -0.939206        -0.644961
 C         3.429143         0.307385        -0.824172
 C         4.999590         0.298235        -0.873945
 O         2.672429         0.931992        -2.014745
 C         1.615203         1.184699        -0.902438
 C         2.638532         1.235737         0.146366
 O         1.947597         0.485141         1.078865
 H         0.082019        -1.331334         1.083378
 H        -0.617782         0.293474         0.815046
 H        -0.681032        -1.038729        -0.519738
 H         2.554449        -1.842089         0.010898
 H         2.166422        -1.142591        -1.579681
 H         5.511044         1.294907        -0.847658
 H         5.434202        -0.029695         0.139242
 H         5.175783        -0.404148        -1.677336
 H         0.989209         2.008263        -1.081209
 H         3.125656         2.140662         0.485848
