19
Iteration:   106charge 0 multiplicity 1
 C        -0.103110        -0.701571         0.207139
 C         1.257639        -0.063477        -0.149819
 C         2.514431        -0.857469        -0.530095
 C         3.433279         0.318759        -0.812850
 C         4.932769         0.198232        -0.928484
 O         2.644510         0.931918        -1.980616
 C         1.691150         1.223188        -0.935000
 C         2.606544         1.368312         0.205367
 O         1.876563         0.560042         1.118233
 H         0.225518        -1.605677         0.779701
 H        -0.742784        -0.050454         0.734895
 H        -0.498690        -1.132538        -0.841768
 H         2.863797        -1.482238         0.279301
 H         2.232423        -1.441344        -1.534743
 H         5.268687        -0.601095        -1.756695
 H         5.308181         1.132024        -1.216569
 H         5.349764        -0.136614         0.146820
 H         1.009060         2.128757        -0.970304
 H         2.996191         2.322318         0.587473
