19
Iteration:  3617
 C        -0.116888        -0.669913         0.007741
 C         1.281570        -0.080807        -0.039745
 C         2.496349        -0.896431        -0.518839
 C         3.454954         0.270128        -0.791946
 C         4.888603         0.133368        -1.042452
 O         2.629010         0.925998        -1.855296
 C         1.630959         1.231901        -0.857794
 C         2.652280         1.404682         0.218638
 O         1.936659         0.640605         1.161602
 H        -0.022341        -1.496848         0.701626
 H        -0.965145         0.027362         0.254201
 H        -0.342714        -1.065159        -0.945689
 H         2.876098        -1.587579         0.294567
 H         2.466441        -1.556138        -1.361495
 H         5.249885         1.157994        -1.259375
 H         5.443213        -0.281918        -0.240489
 H         5.005189        -0.436047        -1.985740
 H         0.887085         1.969530        -1.200647
 H         3.241265         2.325859         0.234563
