19
Iteration:  3723
 C        -0.096810        -0.757060         0.027139
 C         1.339718        -0.021489        -0.031381
 C         2.547666        -1.002215        -0.463480
 C         3.413949         0.307205        -0.769911
 C         4.933778         0.090625        -1.059085
 O         2.569801         0.981821        -1.919886
 C         1.684260         1.316533        -0.867693
 C         2.714465         1.368500         0.212545
 O         1.823086         0.671846         1.132674
 H        -0.134837        -1.520130         0.739197
 H        -0.842341        -0.013455         0.310504
 H        -0.152973        -1.171242        -0.963764
 H         2.945429        -1.438706         0.431900
 H         2.446892        -1.550172        -1.335120
 H         5.274147         1.102170        -1.234139
 H         5.127674        -0.465658        -0.247555
 H         4.873117        -0.465634        -1.978808
 H         0.787821         1.993628        -1.070484
 H         3.287217         2.286579         0.459974
