19
Iteration:  3939
 C        -0.135593        -0.632747         0.003457
 C         1.335348        -0.125958        -0.029633
 C         2.559258        -0.915962        -0.417763
 C         3.346339         0.293291        -0.816257
 C         4.797286         0.223466        -1.078519
 O         2.656448         0.837831        -1.858070
 C         1.666111         1.225587        -0.962049
 C         2.690177         1.347573         0.148961
 O         1.932824         0.680575         1.232604
 H        -0.235971        -1.478459         0.655873
 H        -0.764776         0.244865         0.168255
 H        -0.216883        -1.108036        -1.013437
 H         2.964565        -1.237573         0.570605
 H         2.361980        -1.477680        -1.379871
 H         5.299089         1.065926        -0.753254
 H         5.432290        -0.558832        -0.582591
 H         4.923944        -0.100054        -2.079621
 H         0.827992         1.972997        -1.275811
 H         3.216472         2.232961         0.616557
