19
Iteration:   138
 C         0.000740        -0.660355         0.230294
 C         1.324108        -0.127835        -0.105927
 C         2.452017        -1.015787        -0.551263
 C         3.363524         0.306948        -0.821181
 C         4.871474         0.255992        -0.925671
 O         2.695927         0.957411        -1.930757
 C         1.723759         1.232004        -0.990898
 C         2.569089         1.374968         0.214873
 O         1.855091         0.613157         1.083777
 H         0.117129        -1.472756         0.950310
 H        -0.547126         0.119636         0.655400
 H        -0.455841        -0.975063        -0.783745
 H         2.792670        -1.739118         0.139594
 H         2.104300        -1.637533        -1.476902
 H         5.290630         0.269888        -1.978394
 H         5.259854         1.108701        -0.484028
 H         5.267037        -0.647427        -0.313982
 H         0.909121         1.998864        -1.123151
 H         3.132586         2.290582         0.450371
