19
Iteration:  1300
 C        -0.051616        -0.753727         0.306355
 C         1.276027        -0.096823        -0.022392
 C         2.529431        -0.883126        -0.558585
 C         3.424886         0.275525        -0.805006
 C         4.924575         0.129067        -0.856115
 O         2.663151         0.835680        -2.039429
 C         1.673671         1.381447        -1.014010
 C         2.606171         1.414153         0.139365
 O         1.840402         0.695714         1.066208
 H         0.097486        -1.530632         1.060094
 H        -0.690004        -0.078039         0.792845
 H        -0.702571        -1.133794        -0.517639
 H         2.815173        -1.592661         0.152234
 H         2.380180        -1.459859        -1.451415
 H         5.313093         1.204434        -0.976583
 H         5.197899        -0.379707        -0.011534
 H         5.032372        -0.520896        -1.759395
 H         0.923186         2.081859        -1.448054
 H         3.322353         2.148345         0.537872
