19
Iteration:  3277
 C        -0.039921        -0.744155         0.048474
 C         1.330640        -0.062235        -0.048792
 C         2.511614        -0.868129        -0.438361
 C         3.354486         0.327499        -0.822722
 C         4.829389         0.078519        -1.046179
 O         2.639055         0.955720        -1.889786
 C         1.661515         1.247719        -0.918406
 C         2.695271         1.362383         0.152693
 O         1.877085         0.663512         1.173386
 H         0.051378        -1.410769         0.816579
 H        -0.734964         0.070766         0.245493
 H        -0.228927        -1.328306        -0.866347
 H         2.944277        -1.325411         0.366628
 H         2.284935        -1.477541        -1.302345
 H         5.295549         0.832229        -1.771175
 H         5.209811         0.200634        -0.083962
 H         5.035052        -0.889102        -1.449247
 H         0.824744         1.991496        -1.119130
 H         3.285957         2.169286         0.598107
