19
Iteration:  4162
 C        -0.015311        -0.669639         0.219843
 C         1.395668        -0.080370        -0.110017
 C         2.526343        -0.930267        -0.538913
 C         3.384328         0.309084        -0.822949
 C         4.912633         0.112636        -0.891843
 O         2.608839         0.871926        -1.979571
 C         1.606169         1.193883        -0.946616
 C         2.599319         1.469834         0.163529
 O         1.833227         0.681966         1.078275
 H         0.218933        -1.535097         0.918355
 H        -0.568474         0.146225         0.759028
 H        -0.513321        -1.115612        -0.681040
 H         2.939014        -1.574363         0.212362
 H         2.426935        -1.472539        -1.493966
 H         5.369523         1.110215        -0.564589
 H         5.215877        -0.638823        -0.210855
 H         5.484174        -0.178828        -1.764276
 H         0.764823         1.944542        -1.225132
 H         3.017805         2.427314         0.675975
