19
Iteration:  1808
 C         0.000005        -0.638121         0.342371
 C         1.298072        -0.084596        -0.050931
 C         2.468757        -0.936839        -0.570550
 C         3.395745         0.271356        -0.806810
 C         4.900922         0.233400        -0.812458
 O         2.613235         0.945333        -2.049927
 C         1.646916         1.297009        -1.039605
 C         2.742862         1.261176         0.113892
 O         1.796204         0.617457         1.071119
 H         0.181570        -1.453640         1.032666
 H        -0.572011         0.215221         0.655167
 H        -0.484358        -1.235859        -0.555068
 H         2.879342        -1.559904         0.229228
 H         2.297879        -1.486390        -1.478775
 H         5.454983         1.264428        -0.851319
 H         5.292871        -0.452377         0.008596
 H         5.015363        -0.277479        -1.731629
 H         0.891806         1.976113        -1.275020
 H         3.389906         2.002869         0.596542
