19
Iteration:  4895charge 0 multiplicity 1
 C        -0.071528        -0.534900         0.045825
 C         1.259877        -0.081471        -0.090436
 C         2.585804        -0.934402        -0.472615
 C         3.432173         0.238077        -0.781540
 C         5.004847         0.273005        -1.037645
 O         2.524914         0.875012        -1.968542
 C         1.620943         1.189909        -0.886085
 C         2.680440         1.271254         0.254453
 O         1.828512         0.625788         1.172919
 H        -0.159276        -1.553615         0.413743
 H        -0.775338         0.045360         0.679668
 H        -0.540455        -0.521857        -0.917557
 H         2.896196        -1.569028         0.396406
 H         2.290244        -1.531051        -1.356749
 H         5.391894         1.128211        -1.700778
 H         5.590882         0.337578        -0.084198
 H         5.375661        -0.681326        -1.437268
 H         1.058892         2.067078        -1.371374
 H         3.401403         2.040110         0.816076
