19
Iteration:  4955charge 0 multiplicity 1
 C        -0.015609        -0.741292         0.166561
 C         1.301303        -0.036983        -0.103198
 C         2.448096        -0.895719        -0.534963
 C         3.424142         0.326104        -0.842928
 C         4.961317         0.059099        -1.012005
 O         2.640559         0.989464        -1.928443
 C         1.652762         1.273924        -0.849221
 C         2.637992         1.433503         0.244813
 O         1.784432         0.585776         1.069918
 H         0.208001        -1.381170         1.055432
 H        -0.685383         0.102543         0.272620
 H        -0.200819        -1.355772        -0.743543
 H         2.886363        -1.477652         0.281503
 H         2.302938        -1.542360        -1.398126
 H         5.515519         0.710735        -1.608375
 H         5.382218         0.021878         0.003789
 H         5.068948        -0.970212        -1.422312
 H         1.074622         2.196602        -0.981877
 H         3.063756         2.309010         0.535219
