19
Iteration:  2101
 C        -0.029306        -0.651995         0.085937
 C         1.354835        -0.009798        -0.088733
 C         2.492614        -0.925021        -0.472477
 C         3.408512         0.299367        -0.795308
 C         4.833265         0.118912        -1.049630
 O         2.569663         0.984021        -1.942869
 C         1.651652         1.281635        -0.896573
 C         2.735489         1.260220         0.177470
 O         1.854118         0.597896         1.166470
 H         0.063737        -1.631410         0.589634
 H        -0.680076        -0.099638         0.743944
 H        -0.486802        -0.791495        -0.976010
 H         2.966686        -1.477842         0.444556
 H         2.398259        -1.566197        -1.335166
 H         5.410258         1.004695        -1.458475
 H         5.311358         0.006929        -0.063202
 H         5.027934        -0.727203        -1.621217
 H         1.046939         2.124383        -0.914749
 H         3.135501         2.205403         0.572762
