19
Iteration:  1681
 C        -0.033715        -0.597477         0.098195
 C         1.323482        -0.033205        -0.023221
 C         2.518551        -0.899877        -0.427201
 C         3.426805         0.272100        -0.858654
 C         4.873112         0.235931        -1.023215
 O         2.613173         0.819151        -1.910352
 C         1.647597         1.179966        -0.974195
 C         2.667294         1.334450         0.203899
 O         1.857072         0.635608         1.128894
 H        -0.080272        -1.229147         1.004149
 H        -0.716291         0.205343         0.345610
 H        -0.292454        -1.050018        -0.867054
 H         2.825278        -1.426459         0.397657
 H         2.272574        -1.622897        -1.292016
 H         5.232728         1.319591        -1.096823
 H         5.196201        -0.143677        -0.086677
 H         5.318597        -0.364233        -1.891922
 H         0.768651         1.759329        -1.365764
 H         3.216449         2.205344         0.499102
