19
Iteration:   522charge 0 multiplicity 1
 C        -0.061378        -0.716409         0.036334
 C         1.221706        -0.033844        -0.112969
 C         2.507199        -0.840185        -0.471110
 C         3.422928         0.248092        -0.760525
 C         4.873402         0.177314        -1.109203
 O         2.662757         0.902900        -1.847766
 C         1.679041         1.173518        -0.892448
 C         2.699772         1.360251         0.236981
 O         1.839902         0.675522         1.166448
 H         0.049897        -1.359864         0.924265
 H        -0.984777        -0.005806        -0.013096
 H        -0.200484        -1.349270        -0.785936
 H         2.841987        -1.401891         0.502046
 H         2.585856        -1.588926        -1.185653
 H         5.260096         1.182799        -1.107607
 H         5.575382        -0.516924        -0.570559
 H         4.934177         0.031906        -2.185539
 H         0.885412         1.891819        -1.149834
 H         3.238125         2.273867         0.445446
