19
Iteration:  2855
 C        -0.038108        -0.657505         0.161264
 C         1.299641        -0.042325        -0.017907
 C         2.500590        -0.884571        -0.456748
 C         3.418903         0.333718        -0.873042
 C         4.871770         0.114960        -0.811513
 O         2.585688         0.818815        -2.057485
 C         1.646594         1.196978        -0.980605
 C         2.664857         1.453049         0.133811
 O         1.931225         0.654290         1.147583
 H        -0.065194        -1.588302         0.620058
 H        -0.664559         0.039173         0.777534
 H        -0.580112        -0.814876        -0.761671
 H         2.999187        -1.366056         0.374561
 H         2.436373        -1.566900        -1.371854
 H         5.177873         0.858985        -1.538827
 H         5.266533         0.001093         0.202279
 H         5.054956        -0.775925        -1.604485
 H         0.919124         1.985897        -1.322041
 H         3.158101         2.321770         0.407108
