19
Iteration:  1863charge 0 multiplicity 1
 C        -0.054326        -0.571143         0.032029
 C         1.379786        -0.090322         0.046347
 C         2.598914        -0.904828        -0.354873
 C         3.414646         0.257047        -0.850577
 C         4.826982         0.172727        -1.159349
 O         2.638190         0.866248        -1.970255
 C         1.693960         1.227731        -0.856823
 C         2.649042         1.356201         0.224928
 O         1.781561         0.636197         1.167440
 H        -0.323719        -1.325029         0.795904
 H        -0.812886         0.209069         0.043678
 H        -0.135745        -1.120610        -1.034356
 H         3.020698        -1.574333         0.353288
 H         2.310787        -1.496484        -1.240527
 H         5.337435         1.231663        -1.016934
 H         5.254910        -0.475910        -0.345192
 H         4.913503        -0.244217        -2.156107
 H         0.927706         1.907200        -1.019375
 H         3.026944         2.314843         0.579229
