19
Iteration:   224charge 0 multiplicity 1
 C        -0.158796        -0.804692         0.021657
 C         1.311646        -0.068698        -0.024157
 C         2.600064        -0.927145        -0.350540
 C         3.446689         0.292549        -0.775933
 C         4.897808         0.180341        -1.139826
 O         2.653596         0.879885        -1.930039
 C         1.668544         1.266282        -0.870377
 C         2.696089         1.447497         0.201273
 O         1.801992         0.676079         1.152629
 H        -0.469118        -1.525282         0.751108
 H        -0.801549        -0.012993         0.191329
 H        -0.503503        -1.204869        -0.966602
 H         2.900053        -1.534119         0.396523
 H         2.363684        -1.478179        -1.343579
 H         5.178613         1.166453        -1.605246
 H         5.459570         0.121123        -0.286875
 H         5.195965        -0.659487        -1.807009
 H         0.896610         2.083773        -1.077121
 H         3.290044         2.350466         0.537184
