19
Iteration:   993
 C        -0.037564        -0.696985         0.163061
 C         1.238970        -0.048797        -0.098244
 C         2.432986        -0.952762        -0.461380
 C         3.405406         0.275621        -0.759008
 C         4.897178         0.175464        -0.908206
 O         2.657731         0.958863        -2.007567
 C         1.647644         1.236209        -0.943516
 C         2.666316         1.319099         0.121390
 O         1.944358         0.677971         1.113876
 H         0.130756        -1.626001         0.688842
 H        -0.632235         0.100892         0.751963
 H        -0.622225        -0.927855        -0.773604
 H         2.817573        -1.494743         0.385225
 H         2.305183        -1.666623        -1.386588
 H         5.357317         1.044443        -1.534302
 H         5.422332         0.079748        -0.038759
 H         5.142627        -0.712808        -1.534258
 H         0.764262         1.859732        -1.133121
 H         3.014877         2.299283         0.590441
