19
Iteration:  4110charge 0 multiplicity 1
 C        -0.105955        -0.575094         0.088482
 C         1.379663        -0.045545        -0.037298
 C         2.596616        -0.988788        -0.395966
 C         3.425278         0.186696        -0.845732
 C         4.865370         0.311203        -1.095297
 O         2.584617         0.840981        -1.866035
 C         1.686693         1.204554        -0.925782
 C         2.710096         1.286969         0.230492
 O         1.743460         0.678777         1.080289
 H        -0.045936        -1.416395         0.894599
 H        -0.875488         0.072294         0.423970
 H        -0.381608        -0.844019        -0.936894
 H         2.977972        -1.335315         0.551306
 H         2.321190        -1.678809        -1.219441
 H         5.371718         1.309500        -1.232249
 H         5.540545        -0.058158        -0.241852
 H         5.265744        -0.248213        -1.965298
 H         0.957142         1.933457        -1.414381
 H         3.262529         2.220418         0.577028
