19
Iteration:    55charge 0 multiplicity 1
 C        -0.102635        -0.687231        -0.087654
 C         1.294007        -0.053951        -0.090289
 C         2.518424        -0.938885        -0.430991
 C         3.423867         0.368667        -0.765361
 C         4.969023         0.206598        -1.160740
 O         2.606411         0.855129        -1.859631
 C         1.634781         1.282794        -0.869946
 C         2.684318         1.425518         0.270956
 O         1.856492         0.534873         1.235840
 H        -0.200128        -1.432479         0.726352
 H        -0.742541         0.162687         0.180936
 H        -0.286237        -1.227947        -1.072173
 H         2.737052        -1.461877         0.526298
 H         2.392108        -1.477569        -1.391896
 H         5.240892        -0.852493        -1.065261
 H         5.146548         0.633311        -2.153602
 H         5.650818         0.754933        -0.480139
 H         0.812554         1.884422        -1.228157
 H         3.122927         2.368004         0.645919
