19
Iteration:  1110
 C        -0.085889        -0.697357         0.265055
 C         1.301358        -0.088979        -0.050048
 C         2.464426        -0.891266        -0.493583
 C         3.389326         0.266103        -0.820217
 C         4.842316         0.247850        -0.963151
 O         2.664695         0.858638        -1.977693
 C         1.699956         1.269552        -0.995766
 C         2.683914         1.328742         0.153909
 O         1.898497         0.668382         1.096104
 H        -0.025307        -1.500554         1.040463
 H        -0.771387         0.193634         0.496655
 H        -0.484190        -1.140436        -0.641875
 H         2.890552        -1.679115         0.175260
 H         2.306826        -1.373424        -1.460835
 H         5.377333         1.204555        -0.953482
 H         5.051702        -0.328736         0.117846
 H         5.288417        -0.404855        -1.736328
 H         0.936516         1.930439        -1.404577
 H         3.217525         2.286738         0.403895
