19
Iteration:  1860
 C        -0.057943        -0.571466         0.055502
 C         1.361559        -0.089971         0.049173
 C         2.586819        -0.920279        -0.387731
 C         3.427550         0.272491        -0.807877
 C         4.822907         0.184656        -1.140998
 O         2.624649         0.890031        -1.965757
 C         1.712406         1.204384        -0.883592
 C         2.646219         1.334932         0.208289
 O         1.797686         0.635272         1.148930
 H        -0.266526        -1.372667         0.757543
 H        -0.723952         0.296964         0.007379
 H        -0.100379        -1.110193        -0.895093
 H         2.940375        -1.664064         0.458389
 H         2.342098        -1.444789        -1.228177
 H         5.299103         1.164797        -1.001292
 H         5.276647        -0.510404        -0.333353
 H         4.896403        -0.196420        -2.147422
 H         0.897090         1.942622        -0.999778
 H         3.030809         2.346765         0.431735
