19
Iteration:  3839charge 0 multiplicity 1
 C        -0.068724        -0.580789         0.209031
 C         1.297056        -0.050844        -0.089303
 C         2.542570        -0.926226        -0.634935
 C         3.361142         0.327654        -0.855845
 C         4.833823         0.226562        -0.843061
 O         2.593721         0.853944        -1.972532
 C         1.689545         1.255260        -0.894258
 C         2.720763         1.331377         0.193450
 O         1.897057         0.562144         1.108202
 H        -0.012507        -1.452454         0.921180
 H        -0.714783         0.133439         0.673941
 H        -0.468712        -0.981201        -0.777989
 H         2.875819        -1.686751         0.091231
 H         2.281807        -1.254679        -1.715831
 H         5.377577         0.955115        -1.366897
 H         5.190898         0.068074         0.244680
 H         5.278483        -0.650928        -1.310078
 H         0.841999         1.848813        -1.221198
 H         3.324414         2.201945         0.356551
