19
Iteration:  1682charge 0 multiplicity 1
 C        -0.031777        -0.596878         0.085957
 C         1.322012        -0.032906        -0.029658
 C         2.521164        -0.904410        -0.424616
 C         3.417527         0.275336        -0.859756
 C         4.875074         0.241196        -1.028011
 O         2.620184         0.808736        -1.898611
 C         1.640572         1.184720        -0.959931
 C         2.667849         1.331824         0.199128
 O         1.859350         0.638115         1.126102
 H        -0.085401        -1.221218         1.007640
 H        -0.726716         0.207175         0.365808
 H        -0.287275        -1.053321        -0.845886
 H         2.810935        -1.442868         0.404829
 H         2.293102        -1.570313        -1.275670
 H         5.215820         1.306522        -1.134855
 H         5.197182        -0.146336        -0.082797
 H         5.320978        -0.372498        -1.904146
 H         0.757286         1.783234        -1.376227
 H         3.225668         2.204981         0.494410
