19
Iteration:   803
 C        -0.063181        -0.626181         0.237195
 C         1.248433        -0.020279        -0.096027
 C         2.453580        -0.947396        -0.621004
 C         3.433446         0.220591        -0.793752
 C         4.890849         0.276596        -0.859104
 O         2.643308         0.870302        -1.932986
 C         1.651561         1.240198        -0.953568
 C         2.719402         1.350875         0.127096
 O         1.904915         0.600650         1.122048
 H         0.035148        -1.659787         0.693586
 H        -0.660508         0.101535         0.739874
 H        -0.569944        -0.847653        -0.756891
 H         2.821202        -1.678270         0.161466
 H         2.115230        -1.418434        -1.546596
 H         5.128195         1.169126        -1.327380
 H         5.299662         0.137736         0.224076
 H         5.170706        -0.522993        -1.522602
 H         0.853051         1.898497        -1.333896
 H         3.371916         2.186402         0.243621
