19
Iteration:   516charge 0 multiplicity 1
 C        -0.071549        -0.712089         0.056553
 C         1.272673        -0.013057        -0.073889
 C         2.506204        -0.913762        -0.463606
 C         3.401674         0.259277        -0.797826
 C         4.843878         0.242900        -1.094145
 O         2.680726         0.865331        -1.851626
 C         1.699737         1.252549        -0.957336
 C         2.664698         1.358355         0.207835
 O         1.832318         0.644167         1.204503
 H         0.022556        -1.344484         0.941386
 H        -0.808809         0.066175         0.097338
 H        -0.090445        -1.430413        -0.865664
 H         2.841032        -1.370492         0.442880
 H         2.488088        -1.631553        -1.408783
 H         5.450326         1.189506        -0.911893
 H         5.385618        -0.537172        -0.561590
 H         4.855158        -0.145437        -2.155448
 H         0.920822         1.956252        -1.230108
 H         3.258597         2.243001         0.572141
