19
Iteration:  4725charge 0 multiplicity 1
 C        -0.197602        -0.572756         0.028633
 C         1.255862        -0.149504        -0.028575
 C         2.513325        -1.002831        -0.376757
 C         3.417132         0.281388        -0.780860
 C         4.870752         0.316290        -1.050124
 O         2.666001         0.859011        -1.993891
 C         1.650225         1.322992        -0.943576
 C         2.713453         1.269115         0.208933
 O         1.947267         0.598252         1.231822
 H        -0.153418        -1.532158         0.510297
 H        -0.797227         0.244756         0.577656
 H        -0.675392        -0.747952        -0.997017
 H         3.047330        -1.606316         0.333529
 H         2.518268        -1.528632        -1.356835
 H         5.292497         1.155145        -1.719506
 H         5.493091         0.255541        -0.151882
 H         5.236081        -0.660823        -1.511690
 H         0.863041         2.096210        -1.325843
 H         3.029910         2.261700         0.240189
