19
Iteration:  4097
 C        -0.058686        -0.593517         0.053936
 C         1.253475        -0.054054        -0.016261
 C         2.581512        -0.927696        -0.408113
 C         3.407661         0.319033        -0.765163
 C         4.924767         0.271407        -1.137240
 O         2.627472         0.748143        -1.931707
 C         1.671498         1.254880        -0.947968
 C         2.710674         1.321309         0.223848
 O         1.772886         0.642717         1.158217
 H        -0.247349        -1.463361         0.736541
 H        -0.702136         0.277908         0.264906
 H        -0.294228        -1.071254        -0.917517
 H         2.952721        -1.454951         0.439470
 H         2.590526        -1.698741        -1.155315
 H         5.065466         1.289806        -1.608890
 H         5.422325         0.051332        -0.239191
 H         5.039696        -0.528599        -1.860876
 H         0.881953         2.055634        -1.109035
 H         3.334226         2.024344         0.881132
