19
Iteration:   430charge 0 multiplicity 1
 C        -0.029270        -0.659259         0.194913
 C         1.319405        -0.080619        -0.116153
 C         2.520588        -0.969633        -0.538147
 C         3.375541         0.291110        -0.796905
 C         4.878144         0.223114        -0.921048
 O         2.654937         0.908367        -1.947886
 C         1.618012         1.262284        -0.924132
 C         2.673477         1.317242         0.154158
 O         1.839966         0.657778         1.129269
 H         0.116691        -1.640840         0.653720
 H        -0.739876        -0.055006         0.643857
 H        -0.595851        -0.923541        -0.789168
 H         2.923064        -1.628707         0.135398
 H         2.570712        -1.453684        -1.570578
 H         5.187424         1.055342        -1.599326
 H         5.307684         0.312913         0.048403
 H         5.253034        -0.672098        -1.439131
 H         0.913126         2.050117        -1.210453
 H         3.215149         2.123353         0.683240
