19
Iteration:  2540
 C        -0.039482        -0.686629         0.031129
 C         1.345006        -0.035971        -0.037639
 C         2.567600        -0.866436        -0.409584
 C         3.367882         0.320644        -0.879337
 C         4.761903         0.057022        -1.076753
 O         2.634991         0.869100        -1.924879
 C         1.686977         1.294522        -0.924184
 C         2.723280         1.421942         0.249766
 O         1.830459         0.619167         1.178375
 H        -0.093120        -1.049142         1.037112
 H        -0.880488         0.072506        -0.128768
 H        -0.162457        -1.600961        -0.574541
 H         2.987051        -1.171043         0.508561
 H         2.321791        -1.666626        -1.278952
 H         5.244247         0.989750        -1.321425
 H         5.272316        -0.159534        -0.173410
 H         4.917814        -0.771323        -1.866832
 H         0.930405         2.151920        -1.206541
 H         3.398714         2.168369         0.599186
