19
Iteration:  1111
 C        -0.088761        -0.704545         0.261731
 C         1.293082        -0.094997        -0.049705
 C         2.470004        -0.892641        -0.494478
 C         3.390975         0.267409        -0.833222
 C         4.832294         0.243703        -0.958489
 O         2.670939         0.859775        -1.975050
 C         1.695203         1.272861        -1.000771
 C         2.694687         1.331845         0.157563
 O         1.902261         0.669927         1.102088
 H        -0.005902        -1.466388         1.031288
 H        -0.765115         0.187907         0.526690
 H        -0.524535        -1.140496        -0.637882
 H         2.843309        -1.634977         0.181177
 H         2.302633        -1.385632        -1.469498
 H         5.371228         1.227618        -0.949413
 H         5.046052        -0.309219         0.099729
 H         5.304908        -0.416793        -1.709523
 H         0.938484         1.907227        -1.396102
 H         3.212462         2.307640         0.385312
