19
Iteration:   196charge 0 multiplicity 1
 C         0.048385        -0.633418         0.007172
 C         1.337622         0.013664        -0.071249
 C         2.589524        -0.944724        -0.442756
 C         3.404505         0.249041        -0.772006
 C         4.835781         0.194188        -1.130965
 O         2.634912         0.894206        -1.877841
 C         1.619258         1.180083        -0.949837
 C         2.621033         1.403370         0.254109
 O         1.803659         0.611237         1.229315
 H        -0.271397        -1.352126         0.796883
 H        -0.777303         0.164715        -0.020286
 H        -0.194043        -1.188020        -0.938594
 H         2.836146        -1.371765         0.624484
 H         2.393481        -1.654291        -1.239906
 H         4.978039         0.797797        -2.046995
 H         5.449036         0.637249        -0.260587
 H         5.330774        -0.781932        -1.363561
 H         0.800198         1.771776        -1.290354
 H         3.306293         2.178954         0.480306
