19
Iteration:   438
 C        -0.041233        -0.639046         0.180184
 C         1.305858        -0.097308        -0.065283
 C         2.573954        -0.964007        -0.602337
 C         3.386207         0.307332        -0.720924
 C         4.847881         0.225993        -0.887026
 O         2.612541         0.932575        -1.950082
 C         1.623050         1.268388        -1.009668
 C         2.704628         1.298202         0.146481
 O         1.834976         0.604488         1.109259
 H         0.053694        -1.525746         0.840510
 H        -0.569371         0.009816         1.002663
 H        -0.402983        -0.891063        -0.809840
 H         2.929493        -1.584483         0.342548
 H         2.369022        -1.417615        -1.574344
 H         5.121509         1.127773        -1.476239
 H         5.452972         0.251857         0.111736
 H         5.125762        -0.685050        -1.420521
 H         0.905511         1.998108        -1.397036
 H         3.388074         2.163402         0.423117
