19
Iteration:   409charge 0 multiplicity 1
 C        -0.083408        -0.740373         0.059234
 C         1.331609        -0.045378        -0.022950
 C         2.460379        -0.890929        -0.435458
 C         3.452602         0.269597        -0.851946
 C         4.970197         0.192922        -1.054961
 O         2.620049         0.917796        -1.922279
 C         1.670968         1.243119        -0.940572
 C         2.658728         1.420869         0.226327
 O         1.816928         0.607701         1.195899
 H         0.022244        -1.625992         0.714626
 H        -0.840679        -0.146933         0.441067
 H        -0.409399        -1.138703        -1.004677
 H         2.805370        -1.302088         0.412234
 H         2.126285        -1.598141        -1.327308
 H         5.275755         0.993846        -1.780196
 H         5.363694         0.250670        -0.108161
 H         5.333860        -0.722498        -1.575788
 H         1.037822         1.981616        -1.502830
 H         3.102374         2.339745         0.692903
