19
Iteration:  3020charge 0 multiplicity 1
 C        -0.124444        -0.654492         0.235171
 C         1.265444        -0.069132        -0.049242
 C         2.471481        -0.989945        -0.518859
 C         3.367668         0.246325        -0.770984
 C         4.962259         0.213871        -0.959355
 O         2.721766         0.865426        -1.962316
 C         1.661191         1.237946        -0.986093
 C         2.703968         1.366794         0.107899
 O         1.858910         0.721927         1.139409
 H        -0.079924        -1.623188         0.793923
 H        -0.679220         0.096961         0.861726
 H        -0.781234        -0.858475        -0.600439
 H         2.823378        -1.794035         0.168280
 H         2.228019        -1.518805        -1.519227
 H         5.249251         1.069727        -1.544422
 H         5.384976         0.281033         0.102299
 H         5.293442        -0.704912        -1.628714
 H         0.870130         1.904182        -1.379303
 H         3.056750         2.370421         0.300233
