19
Iteration:  4630charge 0 multiplicity 1
 C        -0.004426        -0.722362         0.160647
 C         1.374272        -0.036483        -0.085922
 C         2.472373        -0.849714        -0.560841
 C         3.381691         0.278962        -0.808944
 C         4.909032         0.058200        -0.969155
 O         2.640647         0.904959        -1.930857
 C         1.645216         1.276185        -0.956205
 C         2.651940         1.462712         0.232445
 O         1.788871         0.638982         1.133445
 H         0.321961        -1.387763         1.022655
 H        -0.748536        -0.004579         0.346667
 H        -0.271355        -1.429458        -0.631874
 H         2.960705        -1.406392         0.232029
 H         2.219104        -1.413752        -1.477863
 H         5.404335         0.982772        -1.220662
 H         5.427528        -0.413952        -0.150045
 H         5.160160        -0.598181        -1.837360
 H         0.828515         1.802957        -1.271075
 H         3.002431         2.396522         0.691396
