19
Iteration:   873
 C        -0.056298        -0.682735         0.009692
 C         1.336231        -0.031164         0.017537
 C         2.523766        -0.908824        -0.429863
 C         3.417675         0.330852        -0.789712
 C         4.852979         0.080403        -1.160604
 O         2.695021         0.837515        -1.912798
 C         1.677059         1.256347        -0.997479
 C         2.615599         1.448047         0.317735
 O         1.800827         0.659253         1.238696
 H        -0.301297        -1.293369         0.837542
 H        -0.872222         0.089783        -0.133599
 H        -0.243650        -1.433938        -0.716059
 H         3.051587        -1.422306         0.402009
 H         2.644634        -1.504435        -1.363861
 H         5.455883         1.094135        -1.274329
 H         5.437708        -0.611620        -0.582605
 H         4.905986        -0.245105        -2.231695
 H         0.871918         1.877454        -1.409042
 H         3.053159         2.423381         0.751042
