19
Iteration:  3910charge 0 multiplicity 1
 C        -0.018082        -0.646987        -0.002082
 C         1.348996        -0.031631        -0.059268
 C         2.492986        -0.934027        -0.402776
 C         3.455759         0.280484        -0.788734
 C         4.938794         0.144183        -1.158133
 O         2.588282         0.878728        -1.905933
 C         1.713213         1.249624        -0.901158
 C         2.655174         1.384738         0.245431
 O         1.744991         0.675883         1.204617
 H         0.045978        -1.443547         0.831075
 H        -0.954992        -0.011130         0.293552
 H        -0.297492        -1.280134        -0.868030
 H         2.873351        -1.466400         0.466175
 H         2.210958        -1.492359        -1.257021
 H         5.484706         1.150746        -1.472723
 H         5.583676        -0.410946        -0.482388
 H         5.027748        -0.534648        -2.120813
 H         0.924924         1.947436        -1.194497
 H         3.065979         2.151401         0.921501
