19
Iteration:  4315charge 0 multiplicity 1
 C        -0.029924        -0.725331         0.213754
 C         1.282636        -0.027854        -0.052302
 C         2.457422        -0.875671        -0.486149
 C         3.489415         0.237310        -0.860983
 C         4.988531         0.158812        -0.974602
 O         2.634063         0.942790        -2.017993
 C         1.697358         1.162965        -0.943152
 C         2.602639         1.401040         0.161358
 O         1.773369         0.674325         1.121391
 H         0.100394        -1.706467         0.736691
 H        -0.547648        -0.052525         0.849627
 H        -0.549488        -0.984973        -0.719638
 H         2.901419        -1.264590         0.436946
 H         2.290594        -1.704169        -1.227258
 H         5.246267         1.251751        -0.915271
 H         5.266187        -0.396220        -0.088679
 H         5.240300        -0.362089        -1.900146
 H         0.899577         1.935257        -1.180985
 H         3.116939         2.273991         0.740105
