19
Iteration:  1913
 C        -0.026453        -0.731450        -0.033924
 C         1.344349        -0.046648         0.046979
 C         2.500726        -0.890545        -0.426445
 C         3.355671         0.336832        -0.791288
 C         4.756393         0.118600        -1.142005
 O         2.702998         0.901129        -1.884238
 C         1.679736         1.249067        -0.928364
 C         2.749192         1.405020         0.219721
 O         1.832887         0.652523         1.198083
 H        -0.151879        -1.629708         0.588797
 H        -0.793147        -0.106355         0.510294
 H        -0.291820        -0.828934        -1.020966
 H         2.900086        -1.571115         0.462316
 H         2.360524        -1.590586        -1.250320
 H         4.999699         0.920032        -1.721821
 H         5.433331         0.079799        -0.265580
 H         4.707534        -0.782045        -1.749904
 H         0.883548         1.968113        -1.356786
 H         3.408457         2.232077         0.544388
