19
Iteration:  2203
 C        -0.080788        -0.739208         0.004238
 C         1.296332        -0.006509        -0.036375
 C         2.459310        -0.856953        -0.481925
 C         3.485705         0.297518        -0.747825
 C         4.907947         0.130116        -1.162957
 O         2.571170         0.946858        -1.830138
 C         1.658110         1.208964        -0.841298
 C         2.706538         1.344687         0.239722
 O         1.902446         0.654134         1.155935
 H        -0.278753        -1.331887         0.920750
 H        -0.858057         0.077422        -0.028505
 H        -0.285987        -1.306804        -0.884019
 H         2.671858        -1.545107         0.297824
 H         2.307896        -1.473275        -1.506931
 H         5.460228         1.002766        -1.404319
 H         5.330850        -0.506650        -0.455068
 H         5.040518        -0.506428        -2.067085
 H         0.952243         2.022419        -1.240507
 H         3.227656         2.249293         0.574122
