19
Iteration:  2046charge 0 multiplicity 1
 C         0.022482        -0.643086        -0.037941
 C         1.381748        -0.035305        -0.024584
 C         2.524435        -0.915580        -0.381694
 C         3.394331         0.280631        -0.710910
 C         4.783143         0.093720        -1.219878
 O         2.704923         0.970154        -1.868164
 C         1.572936         1.227295        -0.867647
 C         2.698370         1.329095         0.236950
 O         1.796921         0.657873         1.167589
 H        -0.079299        -1.489252         0.688266
 H        -0.672329         0.202496         0.114139
 H        -0.307079        -1.140587        -1.022372
 H         3.103904        -1.390519         0.581637
 H         2.368271        -1.560362        -1.222573
 H         5.181428         1.088012        -1.514646
 H         5.558624        -0.518299        -0.707437
 H         4.557768        -0.362685        -2.135190
 H         0.724479         1.815524        -1.036326
 H         3.348435         2.106896         0.632506
