19
Iteration:  4918charge 0 multiplicity 1
 C        -0.079492        -0.696470         0.052137
 C         1.290469        -0.104747        -0.045393
 C         2.462452        -0.936030        -0.496056
 C         3.381129         0.318903        -0.810640
 C         4.862988         0.190661        -0.997294
 O         2.685548         0.912080        -1.905395
 C         1.677730         1.265566        -0.854168
 C         2.706058         1.404151         0.157455
 O         1.917873         0.598908         1.157606
 H        -0.195064        -1.655689         0.477071
 H        -0.871220        -0.066781         0.492439
 H        -0.442271        -0.797343        -0.980260
 H         2.665526        -1.580751         0.371569
 H         2.200666        -1.568143        -1.370616
 H         5.118114         0.889064        -1.863551
 H         5.466669         0.460352        -0.124044
 H         5.104326        -0.817116        -1.284035
 H         0.996144         2.066454        -1.249562
 H         3.035910         2.424655         0.518495
