19
Iteration:  4684
 C        -0.044213        -0.604904         0.155082
 C         1.313459        -0.032765        -0.177625
 C         2.511847        -0.920145        -0.465096
 C         3.374453         0.314618        -0.770347
 C         4.976432         0.187466        -1.037999
 O         2.589624         0.839348        -1.976615
 C         1.656072         1.283868        -0.960620
 C         2.628155         1.333228         0.237542
 O         1.854179         0.578379         1.161129
 H         0.159822        -1.655839         0.478791
 H        -0.543438        -0.143286         0.976226
 H        -0.615907        -0.527235        -0.767199
 H         2.689657        -1.549281         0.397332
 H         2.474418        -1.489858        -1.405301
 H         5.397957         0.899626        -1.735478
 H         5.270578         0.501391        -0.023933
 H         5.315376        -0.875650        -1.150324
 H         1.014270         2.062701        -1.117201
 H         3.080920         2.190526         0.708304
