19
Iteration:   499charge 0 multiplicity 1
 C        -0.003466        -0.649435         0.123387
 C         1.319084        -0.159362         0.015274
 C         2.502457        -0.942596        -0.433314
 C         3.376990         0.333555        -0.766342
 C         4.860717         0.206915        -1.001264
 O         2.633558         0.878145        -2.016922
 C         1.699128         1.324059        -0.978679
 C         2.667763         1.356922         0.260454
 O         1.838615         0.607093         1.085176
 H        -0.086837        -1.389528         0.946117
 H        -0.834290         0.123289         0.129512
 H        -0.363169        -1.174576        -0.757158
 H         2.834773        -1.828258         0.215042
 H         2.237087        -1.501602        -1.317036
 H         5.207189         1.234191        -0.899784
 H         5.372954        -0.449709        -0.264293
 H         5.186655         0.117465        -2.036725
 H         0.964817         2.101137        -1.317860
 H         3.197056         2.197093         0.665916
