19
Iteration:  3689
 C        -0.082205        -0.599689         0.236958
 C         1.260842        -0.076070        -0.084032
 C         2.463267        -0.931956        -0.589164
 C         3.424660         0.334172        -0.782087
 C         4.839074         0.240876        -0.916104
 O         2.692250         0.899468        -1.959256
 C         1.683232         1.288492        -1.016257
 C         2.684365         1.337539         0.190689
 O         1.899939         0.496478         1.151883
 H        -0.018651        -1.454315         0.879076
 H        -0.860251         0.095776         0.527125
 H        -0.514519        -0.944487        -0.743104
 H         2.863887        -1.698300         0.016888
 H         2.347854        -1.452823        -1.522724
 H         5.265347         1.124751        -1.382986
 H         5.470468         0.123270        -0.058462
 H         5.103316        -0.542655        -1.599140
 H         0.781630         1.895411        -1.175451
 H         3.152839         2.230920         0.587356
