19
Iteration:  1799charge 0 multiplicity 1
 C         0.003026        -0.686587         0.287771
 C         1.306670        -0.101281        -0.127730
 C         2.521946        -0.967745        -0.550660
 C         3.360459         0.244850        -0.812831
 C         4.866314         0.170138        -0.810764
 O         2.629111         0.976770        -2.013308
 C         1.625955         1.311525        -0.981636
 C         2.686531         1.301942         0.139006
 O         1.865330         0.699595         1.055109
 H         0.198329        -1.275251         1.173631
 H        -0.595908         0.002243         0.835918
 H        -0.658192        -1.115472        -0.566577
 H         2.759369        -1.684910         0.165762
 H         2.142894        -1.527812        -1.528700
 H         5.309352         1.218210        -0.992978
 H         5.343878        -0.274724         0.038106
 H         5.301102        -0.371136        -1.639133
 H         0.719005         1.789751        -1.240126
 H         3.459890         1.984805         0.447609
