19
Iteration:  1984
 C         0.022102        -0.552931         0.249172
 C         1.357420        -0.132508        -0.095973
 C         2.374235        -1.036720        -0.639800
 C         3.362398         0.205618        -0.876262
 C         4.836769         0.242234        -0.852908
 O         2.688254         0.978884        -1.957575
 C         1.634822         1.278120        -0.952681
 C         2.652174         1.414642         0.127687
 O         1.944481         0.514712         1.157245
 H         0.056759        -1.042844         1.187814
 H        -0.568977         0.283750         0.558265
 H        -0.459381        -1.116736        -0.606990
 H         2.744668        -1.676190         0.070258
 H         2.026436        -1.699545        -1.506328
 H         5.150935         1.373268        -0.826469
 H         5.219514        -0.160279         0.071461
 H         5.235468        -0.278984        -1.770920
 H         0.767758         1.867281        -1.229831
 H         3.172096         2.362019         0.431992
