19
Iteration:  2309charge 0 multiplicity 1
 C        -0.084900        -0.565130         0.294304
 C         1.257084        -0.131956        -0.162118
 C         2.436251        -0.993823        -0.595133
 C         3.381851         0.251481        -0.868237
 C         4.901920         0.229014        -0.843679
 O         2.609239         0.983802        -1.972066
 C         1.726435         1.291217        -0.960940
 C         2.672235         1.283542         0.158367
 O         1.982130         0.553447         1.100220
 H        -0.122915        -1.429519         0.972280
 H        -0.686145         0.190803         0.839616
 H        -0.743578        -0.937419        -0.574754
 H         2.878810        -1.640008         0.221701
 H         2.224243        -1.596341        -1.448406
 H         5.179975         1.367081        -0.799468
 H         5.184229        -0.065674         0.194181
 H         5.337164        -0.327914        -1.713164
 H         0.928930         2.035237        -1.196487
 H         3.214011         2.267364         0.264335
