19
Iteration:  2181
 C        -0.080251        -0.576103         0.181145
 C         1.321902        -0.111157        -0.035802
 C         2.511694        -0.949406        -0.499740
 C         3.365336         0.269261        -0.900754
 C         4.819979         0.200535        -0.971973
 O         2.701082         0.998965        -1.974557
 C         1.676314         1.293172        -0.915019
 C         2.635340         1.302959         0.195476
 O         1.904967         0.537993         1.172775
 H        -0.084926        -1.203384         1.077711
 H        -0.933705         0.130719         0.138912
 H        -0.270535        -1.304573        -0.615011
 H         2.920466        -1.651581         0.192781
 H         2.295729        -1.560518        -1.535966
 H         5.215947         1.191606        -1.105436
 H         5.232183        -0.494614        -0.313001
 H         5.076151        -0.226698        -1.973368
 H         0.895287         2.114206        -1.178757
 H         3.298434         2.099517         0.593148
