19
Iteration:  3872charge 0 multiplicity 1
 C        -0.085092        -0.695313         0.158685
 C         1.261205        -0.143995        -0.089168
 C         2.460543        -0.927257        -0.449102
 C         3.426135         0.343347        -0.781486
 C         4.915846         0.109833        -0.998199
 O         2.666303         1.028755        -1.939054
 C         1.683572         1.287728        -0.968354
 C         2.671316         1.352742         0.188446
 O         1.873419         0.610018         1.122857
 H         0.052397        -1.474465         0.890003
 H        -0.700282         0.127652         0.472322
 H        -0.413191        -1.091298        -0.833767
 H         2.823756        -1.660057         0.308248
 H         2.325874        -1.553001        -1.428651
 H         5.234616         0.924496        -1.532113
 H         5.471774         0.173870        -0.021882
 H         4.842844        -0.801986        -1.507024
 H         0.751362         1.819408        -1.260543
 H         3.317153         2.231434         0.333978
