19
Iteration:  1385charge 0 multiplicity 1
 C        -0.091779        -0.559143         0.018861
 C         1.342014        -0.152275         0.011051
 C         2.504803        -0.983655        -0.309074
 C         3.412272         0.253750        -0.746970
 C         4.886147         0.219672        -1.118402
 O         2.599773         0.857900        -1.940414
 C         1.706106         1.194616        -0.941056
 C         2.596749         1.381268         0.198441
 O         1.903349         0.689480         1.139128
 H        -0.323382        -1.325472         0.758987
 H        -0.676554         0.348978         0.087239
 H        -0.082563        -1.081215        -1.011760
 H         2.736808        -1.387614         0.664093
 H         2.498191        -1.824190        -1.175338
 H         5.069666         1.187575        -1.646005
 H         5.614148         0.283362        -0.332348
 H         5.256537        -0.525061        -1.792727
 H         0.938966         1.745568        -1.456283
 H         2.983908         2.401349         0.468060
