19
Iteration:  1476
 C        -0.042765        -0.680632         0.291401
 C         1.304373        -0.077730        -0.047399
 C         2.484296        -0.900260        -0.513870
 C         3.450757         0.363374        -0.806517
 C         4.962974         0.096506        -0.848522
 O         2.631954         0.878178        -2.009695
 C         1.597307         1.206629        -1.032080
 C         2.640962         1.430680         0.100093
 O         1.842864         0.692694         1.087400
 H         0.164951        -1.548692         0.976347
 H        -0.669813        -0.017379         0.861338
 H        -0.457765        -1.180787        -0.575670
 H         2.838542        -1.828107         0.065995
 H         2.346086        -1.209634        -1.576259
 H         5.507833         1.056283        -0.860055
 H         5.249025        -0.540085        -0.087031
 H         5.226475        -0.398560        -1.824721
 H         0.665432         1.783505        -1.334370
 H         3.098654         2.328902         0.478641
