19
Iteration:   732
 C        -0.054516        -0.695997         0.007582
 C         1.344128        -0.121433        -0.059913
 C         2.507987        -0.986527        -0.446340
 C         3.383379         0.277494        -0.799732
 C         4.872640         0.183386        -1.105935
 O         2.648031         0.893832        -1.887404
 C         1.729909         1.249484        -0.896263
 C         2.661368         1.442368         0.244501
 O         1.832315         0.704648         1.187288
 H        -0.066182        -1.459494         0.770305
 H        -0.749195         0.212116         0.206056
 H        -0.378038        -1.206258        -0.955374
 H         2.648391        -1.551424         0.492742
 H         2.235859        -1.565110        -1.346166
 H         5.353084         1.196705        -1.416136
 H         5.329503        -0.336970        -0.304812
 H         4.921162        -0.460031        -2.026714
 H         0.873225         1.876408        -1.113526
 H         3.153924         2.371222         0.664870
