19
Iteration:   416
 C        -0.073623        -0.762941         0.073603
 C         1.270250        -0.055406        -0.068835
 C         2.467012        -0.890307        -0.493119
 C         3.440360         0.270767        -0.900991
 C         4.925696         0.222977        -1.046945
 O         2.662504         0.890513        -1.928432
 C         1.719212         1.226752        -0.893685
 C         2.635981         1.416385         0.278700
 O         1.850459         0.632498         1.132471
 H        -0.027548        -1.563309         0.827610
 H        -0.643821        -0.000828         0.742217
 H        -0.443040        -1.043118        -0.893491
 H         2.680813        -1.485056         0.501284
 H         2.027690        -1.497207        -1.259198
 H         5.397243         1.057392        -1.573295
 H         5.292683         0.328638         0.063966
 H         5.310118        -0.754115        -1.338669
 H         0.858733         1.863008        -1.115131
 H         3.066158         2.423002         0.479814
