19
Iteration:   164
 C        -0.143325        -0.682819         0.160096
 C         1.246420        -0.065037        -0.059647
 C         2.565572        -0.894064        -0.523308
 C         3.432002         0.384012        -0.782510
 C         4.945793         0.251053        -1.004804
 O         2.632978         0.905347        -1.930609
 C         1.619852         1.177025        -0.990826
 C         2.722007         1.314762         0.188448
 O         1.843142         0.579924         1.153295
 H        -0.237924        -1.443627         0.985640
 H        -0.859017         0.216183         0.307383
 H        -0.302563        -1.012604        -0.877786
 H         2.785983        -1.527901         0.433242
 H         2.467512        -1.615958        -1.313001
 H         5.258536         0.439316        -2.045766
 H         5.598509         0.920815        -0.301684
 H         5.144049        -0.796248        -0.749353
 H         0.883902         1.908160        -1.216574
 H         3.323946         2.163622         0.455596
