19
Iteration:  4524
 C        -0.020293        -0.649111         0.139271
 C         1.336213        -0.101583         0.028643
 C         2.448268        -0.959973        -0.405573
 C         3.392589         0.285480        -0.878451
 C         4.862511         0.202617        -1.000939
 O         2.707295         0.976425        -2.031094
 C         1.644847         1.210307        -0.959184
 C         2.612179         1.363383         0.142928
 O         1.842252         0.631881         1.178971
 H        -0.014214        -1.574283         0.792532
 H        -0.657624        -0.030013         0.630492
 H        -0.438611        -0.961776        -0.789843
 H         2.844299        -1.463614         0.515304
 H         2.306466        -1.677555        -1.205764
 H         5.377890         1.104478        -1.187203
 H         5.435680        -0.245133        -0.160710
 H         5.221016        -0.455430        -1.807375
 H         0.933593         1.959009        -1.225190
 H         3.223584         2.237582         0.358606
