19
Iteration:  2094charge 0 multiplicity 1
 C        -0.013872        -0.652908         0.051522
 C         1.292528         0.000298        -0.080408
 C         2.492664        -0.856387        -0.451013
 C         3.436665         0.295387        -0.814223
 C         4.933488         0.062869        -1.089872
 O         2.529442         0.969806        -1.916590
 C         1.655251         1.261418        -0.866159
 C         2.729299         1.316191         0.194781
 O         1.830098         0.574724         1.201245
 H         0.154721        -1.649900         0.415689
 H        -0.745798        -0.100647         0.634855
 H        -0.425495        -0.880973        -0.947297
 H         2.740669        -1.294962         0.521145
 H         2.483775        -1.625197        -1.366052
 H         5.354841         1.020843        -1.484394
 H         5.471775        -0.013243        -0.153709
 H         5.069706        -0.808804        -1.790617
 H         0.914335         2.098319        -1.129802
 H         3.254066         2.257553         0.504518
