19
Iteration:  4018charge 0 multiplicity 1
 C        -0.025258        -0.756367         0.261890
 C         1.268998        -0.040433        -0.133379
 C         2.455622        -0.892819        -0.539020
 C         3.379116         0.290273        -0.776294
 C         4.911156         0.173007        -0.902334
 O         2.686653         0.908355        -1.903128
 C         1.623961         1.346108        -1.027040
 C         2.675182         1.351781         0.095874
 O         1.881757         0.600538         1.090750
 H         0.232724        -1.396934         0.997653
 H        -0.665309         0.076146         0.651429
 H        -0.359647        -1.016206        -0.699745
 H         2.696332        -1.579289         0.237227
 H         2.204537        -1.455305        -1.371770
 H         5.331640         0.982103        -1.421624
 H         5.352127        -0.004892         0.004423
 H         5.069861        -0.668148        -1.564125
 H         0.828955         2.000093        -1.206437
 H         3.092953         2.098672         0.699648
