19
Iteration:  1140charge 0 multiplicity 1
 C         0.002570        -0.673339         0.258000
 C         1.266708        -0.075757        -0.064797
 C         2.475649        -0.902958        -0.477185
 C         3.412891         0.243704        -0.796996
 C         4.897241         0.177109        -0.880763
 O         2.603352         0.963397        -2.017760
 C         1.640255         1.292295        -1.010750
 C         2.655111         1.305123         0.122274
 O         1.904455         0.631921         1.045462
 H         0.182688        -1.658555         0.835770
 H        -0.618238        -0.042489         0.899359
 H        -0.480720        -0.761771        -0.706560
 H         2.753418        -1.555819         0.490517
 H         2.355075        -1.500701        -1.373334
 H         5.438467         0.983288        -1.240520
 H         5.243558         0.007495         0.154721
 H         5.248045        -0.774008        -1.247433
 H         0.743415         1.969640        -1.218573
 H         3.145818         2.252933         0.244415
