19
Iteration:  1334
 C        -0.021084        -0.680233         0.152465
 C         1.332212        -0.022368        -0.012423
 C         2.495659        -0.949339        -0.437901
 C         3.381764         0.208986        -0.782636
 C         4.926566         0.156375        -0.954724
 O         2.659696         0.914589        -1.930202
 C         1.589071         1.246790        -0.975884
 C         2.588752         1.407763         0.082311
 O         1.878478         0.684799         1.087435
 H         0.144124        -1.647544         0.684473
 H        -0.584112        -0.032080         0.763422
 H        -0.422440        -0.907816        -0.828428
 H         2.661429        -1.517795         0.450729
 H         2.191332        -1.514082        -1.255926
 H         5.423021         0.983018        -1.561406
 H         5.499876         0.135051        -0.081388
 H         5.317604        -0.764224        -1.500957
 H         0.759739         1.898770        -1.400057
 H         3.223929         2.200718         0.448109
