19
Iteration:  4741charge 0 multiplicity 1
 C        -0.101980        -0.567334         0.089609
 C         1.306474        -0.047387        -0.067933
 C         2.530384        -0.923598        -0.450885
 C         3.397576         0.286928        -0.800077
 C         4.910007         0.236400        -1.062082
 O         2.622253         0.884877        -1.892060
 C         1.665529         1.179668        -0.939878
 C         2.672735         1.358136         0.205130
 O         1.885560         0.567214         1.116025
 H        -0.314334        -1.485730         0.738687
 H        -0.775960         0.221908         0.322560
 H        -0.414689        -1.020891        -0.836424
 H         2.722720        -1.362026         0.558626
 H         2.358825        -1.720599        -1.170990
 H         5.215386         1.184653        -1.450260
 H         5.419656         0.057040        -0.094325
 H         5.178163        -0.502604        -1.839739
 H         0.912376         1.887526        -1.211127
 H         3.348223         2.067770         0.802036
