19
Iteration:   209
 C        -0.046324        -0.663261        -0.024036
 C         1.322856        -0.136083         0.038939
 C         2.499618        -0.920853        -0.386066
 C         3.405310         0.334526        -0.787906
 C         4.882382         0.231132        -1.164846
 O         2.652681         0.910869        -1.899926
 C         1.688859         1.196676        -0.908857
 C         2.669411         1.266352         0.216988
 O         1.787958         0.721431         1.173090
 H        -0.051864        -1.403277         0.803226
 H        -0.931472         0.105346         0.028530
 H         0.016882        -1.166840        -0.946716
 H         3.054776        -1.512214         0.458205
 H         2.411060        -1.611125        -1.168461
 H         5.146087         0.928514        -1.937461
 H         5.649816         0.397945        -0.265850
 H         4.948485        -0.772314        -1.474346
 H         0.897698         1.865954        -1.220373
 H         3.082039         2.188417         0.638215
