19
Iteration:   635charge 0 multiplicity 1
 C        -0.063973        -0.595233         0.245628
 C         1.298772        -0.060704        -0.098128
 C         2.490914        -0.999459        -0.583888
 C         3.388601         0.211392        -0.761998
 C         4.943622         0.255781        -0.874236
 O         2.633719         0.916093        -1.931549
 C         1.607419         1.276369        -0.941641
 C         2.605707         1.348893         0.156241
 O         1.924880         0.565360         1.012728
 H        -0.056866        -1.528046         0.770505
 H        -0.605819         0.213889         0.690226
 H        -0.605101        -0.806537        -0.742751
 H         2.810210        -1.554469         0.295806
 H         2.476567        -1.534730        -1.567742
 H         5.196147         1.323960        -1.140535
 H         5.430505         0.052334         0.042543
 H         5.401204        -0.437757        -1.608586
 H         0.900909         2.005846        -1.310133
 H         3.203252         2.148569         0.653182
