19
Iteration:  1766charge 0 multiplicity 1
 C        -0.043696        -0.702031         0.173350
 C         1.333562        -0.011343         0.015829
 C         2.514597        -0.831280        -0.445535
 C         3.385630         0.417410        -0.769829
 C         4.906682         0.096236        -0.951873
 O         2.647240         0.858024        -2.035679
 C         1.607984         1.257864        -0.991480
 C         2.626005         1.352687         0.151756
 O         1.897729         0.608013         1.141200
 H        -0.018885        -1.635945         0.712205
 H        -0.799892        -0.016932         0.452294
 H        -0.488063        -1.132317        -0.823742
 H         2.873438        -1.574732         0.227238
 H         2.255180        -1.358279        -1.483442
 H         5.409305         0.962598        -1.516171
 H         5.417564         0.062817        -0.032817
 H         4.942419        -0.792344        -1.530119
 H         0.819176         1.806060        -1.383860
 H         3.245670         2.108718         0.595045
