19
Iteration:  4575charge 0 multiplicity 1
 C        -0.071692        -0.520243         0.093294
 C         1.343590        -0.058966         0.006428
 C         2.524534        -1.011739        -0.419962
 C         3.461148         0.235297        -0.855584
 C         4.897380         0.337145        -1.109398
 O         2.652978         0.846543        -1.884441
 C         1.604631         1.133463        -0.997330
 C         2.664368         1.286023         0.256965
 O         1.821802         0.670874         1.178381
 H        -0.534743        -0.960721         1.030204
 H        -0.797929         0.270902        -0.204067
 H        -0.160632        -1.371050        -0.618356
 H         2.865667        -1.619626         0.424375
 H         2.282984        -1.567023        -1.358751
 H         5.501343         1.177814        -0.820193
 H         5.420879        -0.518678        -0.768935
 H         5.134175         0.293067        -2.178343
 H         0.869752         1.783936        -1.375013
 H         3.078041         2.253240         0.571076
