19
Iteration:  2999
 C         0.034269        -0.657353         0.327671
 C         1.283468        -0.021502        -0.092657
 C         2.463017        -0.847941        -0.521056
 C         3.378289         0.259116        -0.808735
 C         4.895882         0.154603        -0.874641
 O         2.650211         0.866387        -2.008813
 C         1.701812         1.271961        -1.050848
 C         2.661230         1.343641         0.162948
 O         1.816880         0.651828         1.021331
 H         0.247505        -1.551700         0.960436
 H        -0.651067        -0.023853         0.870106
 H        -0.559635        -1.092053        -0.426428
 H         2.771860        -1.444184         0.352277
 H         2.374357        -1.546898        -1.372278
 H         5.358275         1.074317        -1.169177
 H         5.006219        -0.213759         0.190093
 H         5.080138        -0.690526        -1.632050
 H         0.912843         1.961776        -1.315930
 H         3.312520         2.046036         0.706959
