19
Iteration:  4398charge 0 multiplicity 1
 C        -0.087438        -0.660570         0.077033
 C         1.305682        -0.130062        -0.090943
 C         2.546077        -0.944584        -0.325877
 C         3.406151         0.264269        -0.778253
 C         4.778646         0.271067        -1.066603
 O         2.608633         0.841009        -1.947122
 C         1.761905         1.265293        -0.906466
 C         2.659363         1.376564         0.150851
 O         1.904732         0.628640         1.117688
 H        -0.214646        -1.067779         1.062599
 H        -0.926481         0.192417        -0.061654
 H        -0.486407        -1.326615        -0.753733
 H         2.922648        -1.535642         0.545347
 H         2.490410        -1.647595        -1.191541
 H         5.198159         1.356863        -1.027729
 H         5.351750        -0.214413        -0.282281
 H         5.042315        -0.137154        -2.072639
 H         1.101062         2.187702        -1.174485
 H         3.206643         2.203782         0.599685
