19
Iteration:  4766charge 0 multiplicity 1
 C        -0.006959        -0.661477         0.102949
 C         1.343185        -0.044594        -0.082399
 C         2.588906        -0.975994        -0.525961
 C         3.379829         0.329611        -0.797072
 C         4.885718         0.133571        -1.019563
 O         2.631189         0.890546        -1.927018
 C         1.692602         1.283042        -0.936072
 C         2.641623         1.354386         0.182797
 O         1.755545         0.670485         1.213348
 H        -0.030955        -1.197166         1.053766
 H        -0.787114         0.213868         0.143584
 H        -0.407041        -1.523421        -0.496159
 H         2.874698        -1.757799         0.205047
 H         2.281785        -1.472664        -1.479343
 H         5.497245         1.084973        -1.124292
 H         5.341452        -0.544799        -0.313553
 H         4.921652        -0.265678        -2.005123
 H         0.894637         2.111160        -1.220650
 H         3.267913         2.191777         0.652141
