19
Iteration:   646charge 0 multiplicity 1
 C        -0.158419        -0.603867         0.197062
 C         1.255862        -0.112582        -0.103996
 C         2.566178        -0.878430        -0.497409
 C         3.458102         0.313085        -0.825796
 C         4.932523         0.214299        -0.923238
 O         2.644512         0.880263        -1.946668
 C         1.639186         1.254563        -0.986513
 C         2.641426         1.367619         0.176698
 O         1.899902         0.528978         1.131704
 H        -0.078112        -1.360377         0.952075
 H        -0.767967         0.126232         0.734775
 H        -0.675688        -0.949383        -0.787836
 H         2.797509        -1.784730         0.036246
 H         2.375665        -1.305004        -1.542437
 H         5.372140         1.256771        -1.090753
 H         5.252024        -0.168739        -0.003127
 H         5.310936        -0.382771        -1.782227
 H         0.843594         1.896463        -1.342891
 H         3.185848         2.298927         0.513354
