19
Iteration:   850
 C        -0.043473        -0.660343         0.057164
 C         1.305542        -0.091982        -0.039739
 C         2.540911        -0.928022        -0.431749
 C         3.464378         0.336348        -0.736642
 C         4.859721         0.074609        -1.083830
 O         2.679770         0.957470        -1.871281
 C         1.593767         1.204905        -0.892709
 C         2.666321         1.350958         0.160438
 O         1.811856         0.693446         1.078424
 H        -0.068820        -1.336808         0.898005
 H        -0.859971         0.134295         0.136262
 H        -0.260367        -1.290352        -0.727931
 H         2.852050        -1.380506         0.554450
 H         2.655090        -1.568750        -1.299132
 H         5.259645         1.081031        -1.252255
 H         5.464202        -0.541094        -0.365325
 H         4.835652        -0.344837        -2.089904
 H         0.799095         1.940928        -1.023305
 H         3.153968         2.293333         0.551572
