19
Iteration:  3724charge 0 multiplicity 1
 C        -0.102795        -0.766186         0.019487
 C         1.340514        -0.018338        -0.018372
 C         2.561801        -1.000149        -0.462951
 C         3.403748         0.304119        -0.758338
 C         4.933507         0.084799        -1.066080
 O         2.569990         0.988613        -1.930383
 C         1.685689         1.318227        -0.861654
 C         2.718872         1.368391         0.207666
 O         1.820091         0.672370         1.133872
 H        -0.162304        -1.526241         0.733885
 H        -0.854440        -0.011662         0.297802
 H        -0.179800        -1.172995        -0.943926
 H         2.939621        -1.439440         0.471656
 H         2.474708        -1.569381        -1.330009
 H         5.285756         1.154212        -1.203403
 H         5.146598        -0.482963        -0.264280
 H         4.845001        -0.492531        -1.999981
 H         0.804839         2.016709        -1.098218
 H         3.305349         2.299433         0.457269
