19
Iteration:  3556
 C        -0.082786        -0.687044         0.031527
 C         1.294740        -0.088726        -0.062062
 C         2.442094        -0.879464        -0.417218
 C         3.401410         0.401802        -0.708925
 C         4.898371         0.136653        -1.172319
 O         2.700016         0.928256        -1.868656
 C         1.707919         1.207678        -0.959551
 C         2.670977         1.382569         0.200983
 O         1.835471         0.604549         1.226694
 H        -0.097529        -1.545823         0.804376
 H        -0.818267         0.090641         0.301995
 H        -0.398230        -1.142185        -0.973021
 H         2.663682        -1.525745         0.430860
 H         2.227227        -1.397873        -1.394939
 H         5.581870         1.045225        -1.266758
 H         5.560932        -0.708564        -0.633400
 H         4.919605        -0.167793        -2.271006
 H         0.861717         1.807777        -1.240801
 H         3.282059         2.178152         0.665774
