19
Iteration:  1117
 C        -0.100795        -0.713851         0.226468
 C         1.248963        -0.106785        -0.054876
 C         2.496356        -0.911108        -0.533088
 C         3.379068         0.294136        -0.902727
 C         4.813383         0.212553        -0.915603
 O         2.699391         0.872971        -1.962439
 C         1.675224         1.261033        -1.019300
 C         2.744232         1.363923         0.153056
 O         1.920858         0.674842         1.141957
 H         0.086099        -1.406452         1.123417
 H        -0.685497         0.021144         0.738820
 H        -0.695378        -1.154260        -0.590385
 H         2.694644        -1.553191         0.445693
 H         2.263481        -1.485780        -1.430036
 H         5.200680         1.203836        -0.958594
 H         5.151167        -0.148958         0.032205
 H         5.321471        -0.461220        -1.605805
 H         0.817848         1.944641        -1.375096
 H         3.192239         2.312461         0.382124
