19
Iteration:   221
 C        -0.131815        -0.792941        -0.005665
 C         1.285843        -0.102294         0.010600
 C         2.595524        -0.932884        -0.349044
 C         3.432959         0.308926        -0.786352
 C         4.894481         0.189630        -1.150796
 O         2.665975         0.884743        -1.934914
 C         1.662260         1.265151        -0.880418
 C         2.715303         1.422920         0.214821
 O         1.796917         0.688454         1.142630
 H        -0.446558        -1.521255         0.759507
 H        -0.859663         0.100996         0.169436
 H        -0.460234        -1.213292        -0.902396
 H         2.937853        -1.625318         0.466342
 H         2.290158        -1.405891        -1.246951
 H         5.150076         1.062963        -1.750399
 H         5.565519         0.153164        -0.189109
 H         5.167187        -0.611363        -1.753289
 H         0.901133         2.059888        -0.982997
 H         3.238192         2.362628         0.562343
