19
Iteration:   117
 C        -0.073564        -0.709589         0.219943
 C         1.244152        -0.026208        -0.087952
 C         2.538734        -0.849454        -0.581051
 C         3.382442         0.365207        -0.768974
 C         4.897538         0.207875        -0.875842
 O         2.672825         0.884309        -1.954049
 C         1.625196         1.284910        -0.980312
 C         2.678849         1.297391         0.189024
 O         1.866400         0.562563         1.070912
 H         0.153752        -1.542056         0.929201
 H        -0.707567        -0.071161         0.778001
 H        -0.740002        -1.101113        -0.672136
 H         2.927041        -1.575164         0.115560
 H         2.493772        -1.387557        -1.630427
 H         5.125576        -0.254921        -1.913611
 H         5.309758         1.180494        -0.919128
 H         5.500877        -0.364755        -0.042363
 H         0.784950         1.914921        -1.407382
 H         3.344802         2.047308         0.601795
