19
Iteration:  1060charge 0 multiplicity 1
 C        -0.171044        -0.635706         0.068828
 C         1.334344        -0.120918         0.068546
 C         2.584934        -0.941835        -0.328490
 C         3.406197         0.341334        -0.772199
 C         4.840009         0.168537        -1.101489
 O         2.684989         0.894878        -1.972334
 C         1.644786         1.272650        -0.986933
 C         2.689746         1.345522         0.205401
 O         1.850296         0.629937         1.113779
 H        -0.356652        -1.195730         0.953828
 H        -0.827088         0.205143        -0.060053
 H        -0.195728        -1.397839        -0.756247
 H         2.972153        -1.362270         0.583689
 H         2.557779        -1.815215        -1.066102
 H         5.390539         1.158850        -1.181356
 H         5.362104        -0.466898        -0.555252
 H         4.811758        -0.156819        -2.161760
 H         0.983576         2.057221        -1.387277
 H         3.132568         2.257144         0.617150
