19
Iteration:    45
 C        -0.087223        -0.638763        -0.068126
 C         1.295040        -0.070472        -0.092617
 C         2.505031        -0.895506        -0.414557
 C         3.451180         0.303585        -0.784519
 C         5.023302         0.242547        -1.173633
 O         2.599925         0.868406        -1.814447
 C         1.603232         1.270612        -0.883190
 C         2.625330         1.381425         0.297120
 O         1.856028         0.563324         1.187668
 H        -0.123860        -1.418470         0.696952
 H        -0.995774        -0.007203         0.009153
 H        -0.317502        -1.122115        -1.019741
 H         2.869444        -1.538360         0.418767
 H         2.320906        -1.642248        -1.163587
 H         5.344368        -0.780675        -1.113897
 H         5.150779         0.462307        -2.263355
 H         5.664131         0.863514        -0.580356
 H         0.858029         1.931491        -1.285977
 H         3.283992         2.060518         0.864917
