19
Iteration:  2392charge 0 multiplicity 1
 C        -0.124651        -0.726410        -0.048069
 C         1.246227        -0.041389        -0.024435
 C         2.583066        -0.831682        -0.314014
 C         3.443543         0.333801        -0.791684
 C         4.848258         0.080929        -1.236405
 O         2.691206         0.925917        -1.945958
 C         1.655234         1.288405        -0.876374
 C         2.712082         1.317478         0.266111
 O         1.833944         0.640680         1.217967
 H        -0.175150        -1.421966         0.909844
 H        -0.916579         0.077150        -0.076396
 H        -0.313017        -1.281910        -0.976233
 H         2.714516        -1.353734         0.710105
 H         2.362198        -1.569450        -1.056031
 H         5.175880         1.021439        -1.640533
 H         5.525417        -0.346299        -0.425508
 H         4.874693        -0.653206        -2.013715
 H         0.989896         2.098994        -1.016208
 H         3.339480         2.150058         0.626233
