19
Iteration:  3421
 C        -0.032716        -0.718067        -0.055093
 C         1.282365        -0.035461        -0.037059
 C         2.576243        -0.896042        -0.346990
 C         3.377084         0.302786        -0.709445
 C         4.812481         0.070640        -1.207004
 O         2.654086         0.980852        -1.909818
 C         1.672283         1.257100        -0.892477
 C         2.732690         1.357426         0.225524
 O         1.823154         0.660004         1.186207
 H        -0.041362        -1.563451         0.661273
 H        -0.939528        -0.103757         0.310744
 H        -0.204316        -1.166308        -1.059845
 H         2.875189        -1.412599         0.588423
 H         2.501301        -1.591773        -1.188561
 H         5.198556         1.088955        -1.466752
 H         5.466744        -0.373100        -0.327263
 H         4.765471        -0.632565        -2.086428
 H         0.884525         2.019885        -1.134353
 H         3.155967         2.263083         0.647126
