19
Iteration:  2398charge 0 multiplicity 1
 C        -0.123190        -0.721123        -0.045271
 C         1.262188        -0.040473        -0.085284
 C         2.559985        -0.889647        -0.303313
 C         3.406872         0.296982        -0.785067
 C         4.855921         0.109980        -1.234835
 O         2.665569         0.916025        -1.906271
 C         1.671874         1.307827        -0.861936
 C         2.734744         1.358893         0.264035
 O         1.839060         0.652515         1.232440
 H        -0.197037        -1.445839         0.707584
 H        -0.791338         0.168381        -0.002907
 H        -0.240125        -1.252123        -0.995739
 H         2.814757        -1.293040         0.631020
 H         2.392943        -1.694445        -1.102206
 H         5.377713         1.018025        -1.616156
 H         5.584558        -0.252160        -0.532671
 H         4.797072        -0.746662        -2.010704
 H         0.769057         1.976892        -1.168818
 H         3.340248         2.195604         0.591843
