19
Iteration:  3190
 C        -0.070960        -0.591096         0.160587
 C         1.300316        -0.023416        -0.083074
 C         2.471724        -0.893875        -0.532771
 C         3.390095         0.308834        -0.857577
 C         4.893823         0.234269        -0.928982
 O         2.614816         0.779915        -1.965762
 C         1.659415         1.166017        -0.925874
 C         2.705354         1.357352         0.178089
 O         1.908007         0.631188         1.143440
 H        -0.077635        -1.465055         0.740753
 H        -0.841915         0.105544         0.613448
 H        -0.488142        -0.910462        -0.813971
 H         2.740951        -1.521321         0.234931
 H         2.282522        -1.564223        -1.380453
 H         5.488488         1.302497        -1.028227
 H         5.178596        -0.141802         0.043420
 H         5.335669        -0.385879        -1.728360
 H         0.831073         1.936346        -1.127013
 H         3.331414         2.201682         0.564146
