19
Iteration:  1338
 C        -0.023919        -0.687859         0.153180
 C         1.336273        -0.037076        -0.038043
 C         2.513307        -0.945479        -0.446432
 C         3.382924         0.225146        -0.773735
 C         4.941333         0.148244        -0.970547
 O         2.629816         0.882667        -1.954586
 C         1.590869         1.260815        -0.976255
 C         2.598765         1.423140         0.126255
 O         1.873597         0.691529         1.091405
 H        -0.030867        -1.669352         0.646830
 H        -0.646786         0.093269         0.716372
 H        -0.395194        -0.845379        -0.852231
 H         2.772825        -1.478989         0.531988
 H         2.238674        -1.615511        -1.299439
 H         5.360794         0.901569        -1.560410
 H         5.624728         0.180432        -0.009655
 H         5.306497        -0.735392        -1.478873
 H         0.801931         1.941269        -1.260615
 H         3.178235         2.236095         0.570356
