19
Iteration:  4494charge 0 multiplicity 1
 C        -0.009883        -0.752386         0.195835
 C         1.318507        -0.057797        -0.055042
 C         2.457903        -0.908847        -0.629501
 C         3.406068         0.370236        -0.812570
 C         4.917680         0.132003        -0.928840
 O         2.586563         0.833034        -1.915345
 C         1.641696         1.284985        -0.948598
 C         2.669209         1.425400         0.174334
 O         1.868028         0.699851         1.117973
 H         0.280218        -1.707988         0.594451
 H        -0.815962        -0.360074         0.920080
 H        -0.589657        -0.882548        -0.748935
 H         2.713642        -1.627863         0.168295
 H         2.563213        -1.447758        -1.540327
 H         5.513280         0.870685        -1.574386
 H         5.385239         0.106499         0.131147
 H         4.878313        -0.945429        -1.249869
 H         0.972974         2.151716        -1.248203
 H         3.350199         2.235475         0.446506
