19
Iteration:  3509
 C        -0.052690        -0.554393         0.189024
 C         1.274602        -0.061579        -0.106452
 C         2.466372        -0.885445        -0.564888
 C         3.414162         0.259423        -0.797607
 C         4.893286         0.304132        -0.820546
 O         2.541015         0.932144        -2.032279
 C         1.633561         1.240034        -0.921326
 C         2.766539         1.232225         0.172299
 O         1.934220         0.470213         1.064379
 H         0.055853        -1.355268         1.028981
 H        -0.626021         0.403356         0.574287
 H        -0.621405        -0.985064        -0.638447
 H         2.742432        -1.482782         0.391334
 H         2.260309        -1.465882        -1.446598
 H         5.346152         1.184568        -1.181129
 H         5.357503        -0.056764         0.151579
 H         5.392618        -0.417269        -1.511777
 H         0.899903         1.999253        -1.164719
 H         3.180154         2.154280         0.556462
