19
Iteration:  4121
 C        -0.087533        -0.605625         0.096101
 C         1.268937        -0.101771        -0.116682
 C         2.545305        -0.992667        -0.371012
 C         3.406397         0.217925        -0.838544
 C         4.914573         0.295313        -1.057202
 O         2.655745         0.868029        -1.973881
 C         1.703892         1.186623        -0.890709
 C         2.664729         1.350915         0.189014
 O         1.833251         0.708389         1.168589
 H        -0.098423        -1.552871         0.762874
 H        -0.584583         0.219398         0.531841
 H        -0.573672        -1.008360        -0.804872
 H         2.819061        -1.616743         0.462672
 H         2.341209        -1.758129        -1.157260
 H         5.025537         1.397089        -0.980694
 H         5.352728        -0.313780        -0.211575
 H         5.208336        -0.086326        -2.051047
 H         0.807131         1.837626        -1.152552
 H         3.227820         2.286392         0.442185
