19
Iteration:  4689charge 0 multiplicity 1
 C         0.007543        -0.520089         0.110001
 C         1.304366        -0.056655        -0.153393
 C         2.510242        -0.935751        -0.473180
 C         3.339915         0.272321        -0.763803
 C         4.994649         0.230345        -1.042144
 O         2.587915         0.825852        -1.925047
 C         1.596189         1.276701        -0.960002
 C         2.694986         1.298052         0.238352
 O         1.846618         0.591555         1.158200
 H         0.181228        -1.600181         0.376637
 H        -0.595980        -0.229599         1.032782
 H        -0.606797        -0.594109        -0.811552
 H         2.784263        -1.615940         0.375320
 H         2.416146        -1.484674        -1.414758
 H         5.472598         0.894419        -1.803572
 H         5.263526         0.526415        -0.021845
 H         5.247158        -0.794508        -1.174611
 H         0.732470         2.032489        -1.368188
 H         3.118611         2.241451         0.698112
