19
Iteration:  3208
 C        -0.166310        -0.598032         0.043396
 C         1.318908        -0.097543        -0.017477
 C         2.528973        -0.975981        -0.358904
 C         3.450529         0.224707        -0.750173
 C         4.909576         0.234455        -1.050565
 O         2.573163         0.897719        -1.974104
 C         1.666745         1.325687        -0.957553
 C         2.669606         1.275807         0.172332
 O         1.892383         0.627113         1.142484
 H        -0.059061        -1.497592         0.699118
 H        -0.595645         0.218373         0.537820
 H        -0.561350        -0.856069        -0.951618
 H         2.948318        -1.439902         0.602158
 H         2.546135        -1.689595        -1.164276
 H         5.120760         1.132359        -1.496219
 H         5.475517         0.186130        -0.085623
 H         5.218276        -0.508584        -1.770923
 H         0.967703         2.035505        -1.345860
 H         3.292823         2.185093         0.399707
