19
Iteration:   257charge 0 multiplicity 1
 C         0.016527        -0.706832         0.168186
 C         1.390439        -0.037749        -0.075322
 C         2.497132        -0.906742        -0.391578
 C         3.383113         0.352496        -0.781944
 C         4.840893         0.201515        -0.961613
 O         2.695394         0.883167        -2.012948
 C         1.592381         1.220378        -0.937245
 C         2.637763         1.374390         0.133704
 O         1.812068         0.589253         1.105559
 H         0.082849        -1.530566         0.860102
 H        -0.502950         0.078401         0.546961
 H        -0.428859        -0.960051        -0.829163
 H         2.794061        -1.567689         0.287934
 H         2.310011        -1.426355        -1.385577
 H         5.383377         1.122297        -0.705154
 H         5.163930        -0.515715        -0.321690
 H         5.063699        -0.108344        -2.012413
 H         0.848109         1.994941        -1.251659
 H         3.209577         2.219578         0.566215
