19
Iteration:   234charge 0 multiplicity 1
 C        -0.170726        -0.765537         0.074018
 C         1.334057        -0.028520        -0.103103
 C         2.567945        -0.883176        -0.451030
 C         3.448442         0.276416        -0.756949
 C         4.907906         0.186359        -1.096985
 O         2.600792         0.863663        -1.880778
 C         1.688567         1.256547        -0.927227
 C         2.644175         1.414313         0.194019
 O         1.845176         0.661130         1.179333
 H        -0.047664        -1.574158         0.778989
 H        -0.912314        -0.048417         0.348236
 H        -0.319030        -1.133141        -0.935791
 H         2.851381        -1.337315         0.423185
 H         2.672555        -1.668942        -1.234447
 H         5.315400         1.182434        -1.293773
 H         5.411119        -0.164245        -0.200145
 H         5.075579        -0.513097        -1.907102
 H         0.895300         1.892974        -1.416983
 H         3.217381         2.328259         0.563137
