19
Iteration:  3738
 C        -0.102588        -0.762076        -0.022468
 C         1.243067        -0.090579        -0.007241
 C         2.611216        -0.870701        -0.361897
 C         3.446683         0.286551        -0.757476
 C         4.796089         0.075745        -1.112531
 O         2.605937         1.005887        -1.960773
 C         1.676369         1.302006        -0.911758
 C         2.727475         1.350095         0.191055
 O         1.832826         0.675976         1.205378
 H        -0.190377        -1.582773         0.755284
 H        -0.943684        -0.055721         0.114681
 H        -0.250147        -1.208259        -1.008633
 H         2.997298        -1.420004         0.580707
 H         2.573824        -1.682453        -1.181140
 H         5.576899         0.983848        -1.196654
 H         5.484000        -0.620639        -0.527424
 H         4.994709        -0.303577        -2.183575
 H         0.999845         2.154791        -1.053777
 H         3.294503         2.176369         0.670027
