19
Iteration:   143
 C         0.000386        -0.647348         0.184841
 C         1.321073        -0.112399        -0.083061
 C         2.452317        -0.998504        -0.539023
 C         3.374094         0.296575        -0.840581
 C         4.890268         0.218304        -0.929437
 O         2.711491         0.963132        -1.960242
 C         1.699696         1.230566        -0.933245
 C         2.541697         1.350745         0.190879
 O         1.858747         0.616745         1.095739
 H         0.110305        -1.459263         0.944804
 H        -0.698603         0.144538         0.687040
 H        -0.556799        -1.038439        -0.656261
 H         2.978438        -1.723046         0.203567
 H         2.145492        -1.505094        -1.407814
 H         5.251126         0.311273        -1.944052
 H         5.210809         1.215268        -0.369124
 H         5.439044        -0.582467        -0.466213
 H         0.887960         1.890321        -1.136221
 H         3.097543         2.248503         0.456146
