19
Iteration:  2939charge 0 multiplicity 1
 C        -0.060648        -0.619200         0.096548
 C         1.315134        -0.076990        -0.075562
 C         2.549130        -0.939267        -0.429102
 C         3.377667         0.269278        -0.737804
 C         4.887224         0.155048        -1.076440
 O         2.624803         0.796762        -1.971700
 C         1.715330         1.204416        -0.968302
 C         2.588965         1.397698         0.163113
 O         1.850925         0.761829         1.226639
 H        -0.085088        -0.976431         1.141110
 H        -0.799095         0.208627        -0.064820
 H        -0.199890        -1.455491        -0.676476
 H         2.791990        -1.563096         0.485666
 H         2.407343        -1.532164        -1.376464
 H         5.552703         1.060347        -0.970712
 H         5.438141        -0.558116        -0.482188
 H         5.064525        -0.273224        -2.016298
 H         0.916469         1.985867        -1.206147
 H         3.166996         2.311093         0.510793
