19
Iteration:  4316
 C        -0.025141        -0.726754         0.215721
 C         1.286193        -0.028622        -0.057752
 C         2.451317        -0.872361        -0.474816
 C         3.487213         0.243813        -0.861675
 C         4.982986         0.160675        -0.976017
 O         2.640842         0.947066        -2.014244
 C         1.697228         1.167936        -0.947240
 C         2.610389         1.399256         0.147224
 O         1.772406         0.666834         1.121763
 H         0.099447        -1.737450         0.774124
 H        -0.551101        -0.072757         0.842683
 H        -0.568521        -0.980358        -0.705268
 H         2.887411        -1.251619         0.434332
 H         2.293527        -1.683650        -1.195649
 H         5.248361         1.204833        -0.899021
 H         5.228717        -0.426069        -0.075337
 H         5.218302        -0.338710        -1.912448
 H         0.932452         1.922752        -1.164614
 H         3.058527         2.253013         0.715886
