19
Iteration:  2823
 C         0.053921        -0.734166         0.315096
 C         1.269980        -0.042830        -0.065535
 C         2.423977        -0.934628        -0.461469
 C         3.389518         0.334775        -0.819660
 C         4.908543         0.065683        -0.817158
 O         2.655133         0.964305        -2.013971
 C         1.647647         1.240456        -1.070384
 C         2.672248         1.348502         0.085892
 O         1.822247         0.723160         1.056956
 H         0.257375        -1.588619         0.935115
 H        -0.552135        -0.023343         0.966886
 H        -0.569718        -0.946073        -0.543597
 H         2.836571        -1.606282         0.234076
 H         2.368691        -1.574075        -1.380543
 H         5.390587         0.975692        -1.154275
 H         5.435787        -0.177838         0.132949
 H         4.862035        -0.729189        -1.714459
 H         0.982481         2.048056        -1.466227
 H         3.299209         2.132194         0.383287
