19
Iteration:   974
 C        -0.079334        -0.607449         0.252239
 C         1.317453        -0.121163        -0.040506
 C         2.552340        -0.932877        -0.526841
 C         3.372663         0.312424        -0.885158
 C         4.863984         0.170634        -0.896162
 O         2.662478         0.925464        -1.937736
 C         1.631314         1.249725        -0.984805
 C         2.680748         1.365407         0.108076
 O         1.873773         0.577593         1.089948
 H        -0.074383        -1.566869         0.729420
 H        -0.724564        -0.059464         0.877210
 H        -0.762452        -0.769670        -0.656094
 H         2.869977        -1.439053         0.375588
 H         2.292548        -1.529808        -1.492147
 H         5.313838         1.171028        -1.370329
 H         5.065237         0.280845         0.164441
 H         5.394428        -0.787156        -1.222857
 H         1.022800         2.017037        -1.497752
 H         3.296724         2.227252         0.419455
