19
Iteration:  1959charge 0 multiplicity 1
 C        -0.112062        -0.616128         0.333792
 C         1.245342        -0.089483        -0.109686
 C         2.498732        -0.856605        -0.613971
 C         3.414618         0.345855        -0.838433
 C         4.877127         0.187134        -0.873436
 O         2.609231         0.944637        -1.974950
 C         1.657135         1.260333        -0.988400
 C         2.757716         1.297516         0.128928
 O         1.899476         0.501747         1.082816
 H        -0.046522        -1.363035         1.097719
 H        -0.683918         0.141347         0.797196
 H        -0.516292        -0.944153        -0.618638
 H         3.031880        -1.620963         0.123314
 H         2.471939        -1.366249        -1.530644
 H         5.488040         1.092809        -1.054667
 H         5.096443        -0.009995         0.204977
 H         5.096842        -0.635832        -1.449064
 H         0.862777         1.924559        -1.195527
 H         3.336875         2.129900         0.513788
