19
Iteration:  3351charge 0 multiplicity 1
 C        -0.071870        -0.569692         0.233753
 C         1.327074        -0.120999        -0.099277
 C         2.519025        -0.994155        -0.441918
 C         3.341099         0.232846        -0.844293
 C         4.851014         0.275091        -0.963363
 O         2.696898         0.966162        -1.949404
 C         1.689368         1.205984        -0.982159
 C         2.650062         1.334275         0.166618
 O         1.877539         0.569811         1.081924
 H        -0.119296        -1.380349         1.011259
 H        -0.507501         0.351403         0.588436
 H        -0.554666        -0.906744        -0.754039
 H         2.778709        -1.644357         0.407165
 H         2.217959        -1.554740        -1.363423
 H         5.225240         1.229702        -0.490924
 H         5.262361        -0.523103        -0.416558
 H         5.157866         0.272408        -1.985102
 H         0.850152         1.803711        -1.419353
 H         3.175151         2.247763         0.555405
