19
Iteration:  3300
 C        -0.053608        -0.697921         0.214378
 C         1.292370        -0.048276        -0.077605
 C         2.484908        -0.965043        -0.555219
 C         3.338469         0.297742        -0.827969
 C         4.863236         0.140542        -0.868047
 O         2.640830         0.981067        -2.013281
 C         1.691253         1.304084        -0.968470
 C         2.682016         1.340895         0.153027
 O         1.921638         0.604388         1.115254
 H         0.235287        -1.333822         0.984280
 H        -0.836089         0.030639         0.554218
 H        -0.370569        -1.379063        -0.566445
 H         2.755730        -1.368398         0.352865
 H         2.357861        -1.624367        -1.409432
 H         5.309241         1.138018        -1.206387
 H         5.166446        -0.096643         0.126639
 H         5.200807        -0.544348        -1.638429
 H         0.829068         1.980300        -1.233368
 H         3.113118         2.204593         0.645052
