19
Iteration:  2177
 C        -0.088069        -0.566290         0.220066
 C         1.331192        -0.090103        -0.054877
 C         2.543999        -0.959946        -0.548189
 C         3.375829         0.233706        -0.906918
 C         4.790070         0.223601        -0.955162
 O         2.674306         0.998617        -1.962161
 C         1.689507         1.303529        -0.928690
 C         2.588280         1.269093         0.215263
 O         1.919409         0.539628         1.136615
 H        -0.091221        -1.102295         1.181320
 H        -0.884079         0.163254         0.257222
 H        -0.347077        -1.301381        -0.668335
 H         2.968894        -1.683385         0.212497
 H         2.381462        -1.458388        -1.385936
 H         5.292661         1.249697        -1.054143
 H         5.183300        -0.532841        -0.222756
 H         5.175997        -0.190077        -1.869925
 H         1.107503         2.083232        -1.271118
 H         3.285815         2.033132         0.620491
