19
Iteration:  1518
 C        -0.067041        -0.647140         0.124317
 C         1.274502        -0.038324         0.030113
 C         2.493511        -0.935371        -0.329644
 C         3.372620         0.266581        -0.741869
 C         4.917368         0.282482        -1.045826
 O         2.679116         0.848736        -2.028984
 C         1.644091         1.196519        -0.932831
 C         2.717691         1.347554         0.149703
 O         1.851601         0.643453         1.059806
 H        -0.329745        -1.546725         0.756698
 H        -0.835557         0.022757         0.414172
 H        -0.347631        -0.888903        -0.936372
 H         2.781071        -1.454456         0.612467
 H         2.246692        -1.703542        -1.181183
 H         5.137194         1.239804        -1.642033
 H         5.498010         0.259442        -0.196817
 H         5.189941        -0.611567        -1.677583
 H         0.869698         1.962017        -1.222364
 H         3.410585         2.013614         0.620420
