19
Iteration:  4414charge 0 multiplicity 1
 C        -0.031724        -0.549925         0.060581
 C         1.329344         0.003339        -0.082447
 C         2.523263        -0.968219        -0.430266
 C         3.383820         0.323030        -0.728216
 C         4.849500         0.312101        -1.081745
 O         2.654066         0.760331        -1.905414
 C         1.577151         1.245679        -0.995989
 C         2.702830         1.312442         0.268641
 O         1.889747         0.562221         1.143847
 H        -0.106912        -1.081298         1.047352
 H        -0.723877         0.197329         0.059016
 H        -0.165089        -1.290836        -0.701947
 H         2.783330        -1.439928         0.518165
 H         2.479393        -1.689179        -1.264945
 H         5.080326         1.268463        -1.490638
 H         5.427125        -0.005905        -0.182351
 H         4.836237        -0.386344        -1.916237
 H         0.732164         1.743233        -1.457363
 H         3.290797         2.213168         0.541305
