19
Iteration:   150
 C        -0.062745        -0.624828         0.151754
 C         1.318960        -0.083689        -0.046406
 C         2.505992        -0.924791        -0.511674
 C         3.413982         0.239874        -0.853242
 C         4.919195         0.221273        -0.919129
 O         2.715250         0.968806        -1.987741
 C         1.581609         1.217990        -0.911069
 C         2.632576         1.322263         0.148773
 O         1.839597         0.604646         1.154229
 H         0.044955        -1.429355         0.904702
 H        -0.740173         0.041148         0.581280
 H        -0.688628        -1.228466        -0.647484
 H         3.007734        -1.496545         0.245739
 H         2.303523        -1.425875        -1.555775
 H         5.147852         0.402205        -2.034721
 H         5.241264         1.053044        -0.407436
 H         5.616163        -0.681580        -0.614099
 H         0.750355         1.813280        -1.347100
 H         3.068646         2.196440         0.591937
