19
Iteration:  4835charge 0 multiplicity 1
 C        -0.130559        -0.657397         0.139138
 C         1.308957        -0.094005        -0.035659
 C         2.540590        -0.901720        -0.509403
 C         3.417604         0.292709        -0.830723
 C         4.946929         0.187242        -1.001629
 O         2.650265         0.878746        -1.952595
 C         1.651001         1.221382        -0.912219
 C         2.694973         1.412509         0.190593
 O         1.808478         0.628675         1.139834
 H        -0.036529        -1.380910         0.974833
 H        -0.749221         0.199016         0.416789
 H        -0.446403        -1.280664        -0.742322
 H         2.885536        -1.715782         0.113166
 H         2.243128        -1.333933        -1.486298
 H         5.394146         1.105006        -0.675094
 H         5.148123        -0.607061        -0.270593
 H         5.159084        -0.029098        -2.081926
 H         1.009904         2.022783        -1.174493
 H         3.240367         2.209291         0.538928
