19
Iteration:   599
 C        -0.128638        -0.685164         0.157688
 C         1.253148        -0.056587         0.000679
 C         2.523424        -0.902322        -0.606722
 C         3.415596         0.261536        -0.839435
 C         4.924589         0.219893        -0.922461
 O         2.663666         0.889157        -1.965285
 C         1.632528         1.301370        -0.988306
 C         2.685304         1.329030         0.212654
 O         1.904987         0.589807         1.117377
 H        -0.205239        -1.603196         0.765911
 H        -0.915732        -0.039910         0.794723
 H        -0.505229        -0.818878        -0.807400
 H         2.963645        -1.593665         0.254909
 H         2.304293        -1.538177        -1.394611
 H         5.155311         1.161949        -1.417141
 H         5.329968         0.326439         0.146910
 H         5.444668        -0.570708        -1.463545
 H         0.851831         2.057023        -1.128884
 H         3.152133         2.175651         0.729865
