19
Iteration:   742
 C        -0.092616        -0.665569         0.084233
 C         1.354526        -0.110185        -0.189862
 C         2.531600        -0.977991        -0.466141
 C         3.441759         0.307909        -0.832401
 C         4.863472         0.173497        -1.048076
 O         2.639170         0.870405        -1.922025
 C         1.668003         1.266873        -0.862054
 C         2.588117         1.406225         0.285110
 O         1.896323         0.686072         1.162227
 H        -0.277985        -1.423519         0.814311
 H        -0.879641         0.177879         0.417291
 H        -0.463053        -0.949332        -0.893322
 H         2.840969        -1.614706         0.448794
 H         2.402052        -1.691427        -1.274801
 H         5.399946         1.159102        -1.332499
 H         5.432673        -0.175297        -0.187528
 H         5.094860        -0.568332        -1.857360
 H         0.833926         1.876907        -1.180394
 H         3.135461         2.333179         0.643455
