19
Iteration:  1882
 C        -0.079632        -0.657649        -0.085511
 C         1.291109        -0.019940        -0.064980
 C         2.587602        -0.929700        -0.405484
 C         3.447905         0.269864        -0.835990
 C         4.924442         0.125372        -1.243490
 O         2.536672         0.840291        -1.860172
 C         1.659792         1.236480        -0.903597
 C         2.672615         1.393115         0.362651
 O         1.829921         0.710891         1.256461
 H        -0.086621        -1.469735         0.608557
 H        -0.705271         0.193697         0.111573
 H        -0.295194        -1.128544        -1.046131
 H         2.849346        -1.170441         0.727290
 H         2.544432        -1.776733        -0.978405
 H         5.356118         1.120628        -1.452242
 H         5.524955        -0.295279        -0.349587
 H         5.023372        -0.483569        -2.121638
 H         0.848994         1.842838        -1.329139
 H         3.364926         2.175681         0.704233
