19
Iteration:  4050
 C        -0.005673        -0.690986         0.095731
 C         1.355077        -0.090869         0.000359
 C         2.568747        -0.866515        -0.456795
 C         3.405423         0.308348        -0.855381
 C         4.881082         0.112113        -0.980450
 O         2.598623         0.941441        -1.993421
 C         1.632680         1.284886        -0.960847
 C         2.706258         1.344271         0.194914
 O         1.791256         0.649051         1.174959
 H        -0.207033        -1.445654         0.815824
 H        -0.811908         0.103736         0.216368
 H        -0.236242        -1.246335        -0.802570
 H         2.995288        -1.542945         0.306182
 H         2.301404        -1.480773        -1.298817
 H         5.266907         0.711721        -1.732608
 H         5.316485         0.204028        -0.022137
 H         4.957664        -0.924034        -1.259225
 H         0.821173         1.958664        -1.043385
 H         3.177889         2.240288         0.554434
