19
Iteration:  3791charge 0 multiplicity 1
 C        -0.146285        -0.636296         0.109980
 C         1.255190        -0.134423        -0.017876
 C         2.524853        -0.931943        -0.515012
 C         3.459318         0.330384        -0.785054
 C         4.881422         0.241506        -1.057764
 O         2.693007         0.890625        -1.943333
 C         1.669797         1.189224        -0.933126
 C         2.737736         1.296024         0.220864
 O         1.800268         0.665294         1.169010
 H        -0.236899        -1.351433         0.922921
 H        -0.635976         0.244998         0.543230
 H        -0.511713        -1.002986        -0.804565
 H         2.874252        -1.556368         0.332002
 H         2.298526        -1.438270        -1.439215
 H         5.429660         1.209741        -1.276082
 H         5.280529        -0.453012        -0.394627
 H         5.161153        -0.117441        -2.071123
 H         0.916408         1.961077        -1.202647
 H         3.289657         2.188553         0.608473
