19
Iteration:  3803charge 0 multiplicity 1
 C        -0.148582        -0.597141         0.187711
 C         1.322200        -0.037970        -0.068514
 C         2.472662        -0.954158        -0.474470
 C         3.386563         0.263635        -0.888478
 C         4.948059         0.261348        -1.027135
 O         2.703944         0.940516        -1.919980
 C         1.652976         1.202907        -0.936697
 C         2.699392         1.317626         0.139551
 O         1.850981         0.561925         1.148353
 H        -0.135739        -1.501141         0.824188
 H        -0.897208         0.137357         0.450921
 H        -0.571920        -0.926356        -0.719655
 H         2.856783        -1.556260         0.377265
 H         2.396272        -1.700451        -1.303273
 H         5.236472         1.316511        -0.774321
 H         5.354108        -0.095055        -0.103866
 H         5.123759        -0.425752        -1.868897
 H         0.887567         1.900658        -1.219885
 H         3.217923         2.171492         0.586084
