19
Iteration:  3774charge 0 multiplicity 1
 C        -0.053039        -0.608653         0.071421
 C         1.352574        -0.056669        -0.069626
 C         2.554319        -0.947259        -0.461070
 C         3.455275         0.254231        -0.711243
 C         4.913187         0.149608        -1.157387
 O         2.613644         0.852308        -1.869804
 C         1.687141         1.267585        -0.937853
 C         2.609915         1.420461         0.250628
 O         1.788452         0.642042         1.160737
 H        -0.056570        -1.453297         0.832939
 H        -0.800803         0.172630         0.272682
 H        -0.245122        -1.081029        -0.978671
 H         2.959730        -1.692712         0.246408
 H         2.462655        -1.349741        -1.537795
 H         5.190822         1.177975        -1.030198
 H         5.513209        -0.685572        -0.543647
 H         4.690010        -0.134812        -2.190375
 H         0.880596         1.948933        -1.140572
 H         3.081807         2.272284         0.694356
