19
Iteration:  3373charge 0 multiplicity 1
 C        -0.161329        -0.593878         0.065563
 C         1.267084        -0.064027        -0.066638
 C         2.585102        -0.926553        -0.418465
 C         3.399982         0.318602        -0.771012
 C         4.958977         0.235235        -1.068011
 O         2.583213         0.825967        -1.947419
 C         1.662713         1.229304        -0.901349
 C         2.686582         1.363296         0.194118
 O         1.874614         0.580672         1.163842
 H        -0.175515        -1.504334         0.713116
 H        -0.877197         0.161632         0.388353
 H        -0.439156        -1.021504        -0.977676
 H         3.019745        -1.272005         0.541961
 H         2.482962        -1.674415        -1.224956
 H         5.644932         1.086759        -0.781093
 H         5.330361        -0.644458        -0.652212
 H         4.970020         0.160882        -2.128835
 H         0.959292         2.063289        -1.188800
 H         3.309277         2.225939         0.530102
