19
Iteration:   788charge 0 multiplicity 1
 C        -0.121314        -0.581749         0.197920
 C         1.328155        -0.112551        -0.116135
 C         2.505751        -1.002032        -0.622933
 C         3.325451         0.222958        -0.835580
 C         4.904206         0.226357        -0.877943
 O         2.659467         0.912680        -1.921204
 C         1.640468         1.235580        -0.986921
 C         2.612428         1.323361         0.161315
 O         1.977687         0.662809         1.153415
 H         0.042701        -1.468703         0.835647
 H        -0.603337         0.074324         0.956360
 H        -0.893424        -0.740653        -0.694543
 H         2.731502        -1.647892         0.171941
 H         2.482400        -1.553862        -1.669739
 H         5.228425         1.295668        -1.295436
 H         5.217961         0.292807         0.124618
 H         5.596773        -0.545435        -1.344281
 H         0.878083         1.952487        -1.335173
 H         3.127629         2.222510         0.584143
