19
Iteration:  4470charge 0 multiplicity 1
 C        -0.003042        -0.688079         0.189924
 C         1.304519        -0.013018        -0.081709
 C         2.482996        -0.812574        -0.449051
 C         3.401532         0.271194        -0.800930
 C         4.836047         0.108145        -0.954880
 O         2.621058         0.969744        -1.987334
 C         1.658357         1.227250        -1.011897
 C         2.632246         1.320646         0.205587
 O         1.905257         0.585327         1.074620
 H         0.263872        -1.636317         0.750403
 H        -0.632798        -0.164725         0.823184
 H        -0.619003        -0.853850        -0.651834
 H         2.916852        -1.374245         0.386616
 H         2.409604        -1.504339        -1.279027
 H         5.166645         0.873090        -1.606674
 H         5.302393         0.522607         0.046355
 H         5.293583        -0.908194        -1.097024
 H         0.860069         1.836754        -1.340504
 H         3.206614         2.203416         0.489498
