19
Iteration:  2151charge 0 multiplicity 1
 C        -0.111394        -0.518670         0.322615
 C         1.294899        -0.106066        -0.186711
 C         2.400460        -0.941748        -0.615272
 C         3.446920         0.341639        -0.848716
 C         4.960499         0.299142        -0.826440
 O         2.644223         0.912637        -2.010023
 C         1.613354         1.226414        -0.840191
 C         2.722107         1.276182         0.138036
 O         1.875625         0.468290         1.058625
 H         0.158278        -1.160913         1.199477
 H        -0.732270         0.298627         0.792481
 H        -0.650521        -1.044919        -0.365712
 H         2.605238        -1.730378         0.063256
 H         2.391707        -1.321145        -1.738338
 H         5.414656         1.247623        -1.001511
 H         5.449761        -0.305511         0.018385
 H         5.327785        -0.241653        -1.808062
 H         0.822714         2.013691        -1.126704
 H         3.314020         2.056773         0.550356
