19
Iteration:  2853charge 0 multiplicity 1
 C        -0.044687        -0.672242         0.173635
 C         1.294870        -0.041695        -0.023403
 C         2.491197        -0.875150        -0.466298
 C         3.410785         0.319682        -0.886557
 C         4.867160         0.094280        -0.807144
 O         2.599025         0.828724        -2.060843
 C         1.659660         1.198410        -0.962843
 C         2.656389         1.476783         0.131502
 O         1.933015         0.651632         1.136447
 H        -0.049151        -1.593778         0.658565
 H        -0.647067        -0.003257         0.792781
 H        -0.630862        -0.819309        -0.761602
 H         3.064824        -1.350840         0.386877
 H         2.500912        -1.616361        -1.330823
 H         5.197396         0.920912        -1.494984
 H         5.226317         0.036676         0.186627
 H         5.042751        -0.753769        -1.542329
 H         0.900658         1.993122        -1.298365
 H         3.200442         2.335989         0.372701
