19
Iteration:  4360charge 0 multiplicity 1
 C         0.006164        -0.717171         0.170349
 C         1.324666        -0.056698        -0.052065
 C         2.490735        -0.885476        -0.478112
 C         3.433409         0.356626        -0.783268
 C         4.918703         0.130559        -1.017923
 O         2.655939         0.845462        -1.952692
 C         1.648828         1.208641        -0.959264
 C         2.614423         1.435959         0.200796
 O         1.799227         0.676705         1.130742
 H         0.072138        -1.475175         1.037635
 H        -0.633027         0.051525         0.440545
 H        -0.258785        -1.310083        -0.695581
 H         2.787535        -1.639400         0.239567
 H         2.222231        -1.311442        -1.448145
 H         5.477454         0.974258        -0.666543
 H         5.251280        -0.828868        -0.496324
 H         5.100814        -0.026839        -2.092024
 H         0.887119         1.862082        -1.325600
 H         2.909579         2.518881         0.283725
