19
Iteration:  3679
 C        -0.159859        -0.587828         0.262736
 C         1.293609        -0.159726        -0.097215
 C         2.490208        -1.009006        -0.581900
 C         3.335001         0.301494        -0.774859
 C         4.939794         0.279324        -0.906661
 O         2.653398         0.976844        -1.931860
 C         1.710654         1.268662        -0.938435
 C         2.668642         1.299871         0.150586
 O         1.923529         0.551073         1.029388
 H        -0.149842        -1.414541         0.921587
 H        -0.770710         0.199881         0.752279
 H        -0.591999        -1.019748        -0.647163
 H         2.785797        -1.680897         0.198722
 H         2.310013        -1.371928        -1.558163
 H         5.323202         1.247337        -1.409712
 H         5.406988         0.175807         0.071473
 H         5.199628        -0.640542        -1.447740
 H         1.038526         2.078013        -1.361258
 H         3.225211         2.099375         0.633342
