19
Iteration:  3477charge 0 multiplicity 1
 C        -0.104834        -0.649014         0.198849
 C         1.327218        -0.183099        -0.093974
 C         2.450163        -0.926379        -0.652710
 C         3.325898         0.269028        -0.810597
 C         4.853165         0.263473        -0.900056
 O         2.683085         0.981773        -1.922684
 C         1.688990         1.230770        -0.929626
 C         2.716763         1.303429         0.177905
 O         1.945480         0.625632         1.124291
 H        -0.122322        -1.441444         1.058552
 H        -0.577489         0.355805         0.545356
 H        -0.667025        -0.950882        -0.685041
 H         2.673471        -1.800252         0.056815
 H         2.029160        -1.342093        -1.555395
 H         5.343207         1.036809        -1.513079
 H         5.371720         0.284061         0.224787
 H         5.144414        -0.765046        -1.396528
 H         0.873390         1.813992        -1.316429
 H         3.135128         2.227944         0.565379
