19
Iteration:  2311charge 0 multiplicity 1
 C        -0.098032        -0.573470         0.282561
 C         1.235574        -0.152210        -0.144844
 C         2.438786        -0.980955        -0.581013
 C         3.372535         0.262636        -0.871853
 C         4.915252         0.229534        -0.838717
 O         2.622342         0.980163        -1.990188
 C         1.717906         1.296684        -0.967531
 C         2.681101         1.277689         0.173659
 O         1.994167         0.557180         1.094133
 H        -0.089219        -1.385315         1.087240
 H        -0.730776         0.192057         0.890607
 H        -0.749564        -0.935829        -0.576850
 H         2.886544        -1.578422         0.120544
 H         2.244271        -1.629568        -1.499930
 H         5.174236         1.325161        -0.813579
 H         5.101283        -0.097805         0.168042
 H         5.403962        -0.319778        -1.724534
 H         0.898763         2.109483        -1.192358
 H         3.186897         2.234975         0.331019
