19
Iteration:  4718
 C        -0.191317        -0.553941         0.049461
 C         1.276231        -0.185495        -0.021867
 C         2.512014        -0.951927        -0.428878
 C         3.389648         0.248733        -0.742655
 C         4.854498         0.306099        -1.054574
 O         2.659955         0.856561        -2.013198
 C         1.711411         1.232553        -0.912269
 C         2.701888         1.315452         0.203959
 O         1.950691         0.632948         1.199802
 H        -0.387182        -1.671319         0.260445
 H        -0.755977         0.081946         0.617699
 H        -0.573234        -0.629566        -0.949862
 H         2.930117        -1.652831         0.319905
 H         2.426311        -1.444165        -1.400267
 H         5.107419         1.072426        -1.729156
 H         5.317008         0.531235        -0.053019
 H         5.332009        -0.624375        -1.436602
 H         1.071616         2.026171        -1.042909
 H         3.055602         2.370265         0.404345
