19
Iteration:  4776charge 0 multiplicity 1
 C        -0.085758        -0.738480         0.166575
 C         1.290445        -0.103141        -0.020990
 C         2.503348        -0.880975        -0.587171
 C         3.439127         0.306454        -0.762296
 C         4.883164         0.136783        -1.030182
 O         2.694834         0.941941        -1.910378
 C         1.638062         1.245478        -1.004045
 C         2.644264         1.404294         0.226518
 O         1.830480         0.690989         1.160754
 H        -0.133950        -1.176027         1.183698
 H        -1.018646        -0.091655        -0.011241
 H        -0.129056        -1.501829        -0.636305
 H         2.791580        -1.445277         0.341556
 H         2.342053        -1.560306        -1.449608
 H         5.636159         0.952277        -0.909248
 H         5.239510        -0.724338        -0.476080
 H         4.973040        -0.270145        -2.002139
 H         0.922675         2.082622        -1.420492
 H         3.560380         2.007192         0.606576
