19
Iteration:  1946charge 0 multiplicity 1
 C        -0.086702        -0.664281         0.218939
 C         1.320199        -0.067342        -0.070734
 C         2.483415        -0.895685        -0.589661
 C         3.446612         0.336423        -0.811519
 C         4.999465         0.129100        -0.919130
 O         2.560784         0.952489        -1.956119
 C         1.622444         1.259356        -0.867472
 C         2.756270         1.410396         0.083799
 O         1.815706         0.532529         1.088836
 H         0.017278        -1.572854         0.873049
 H        -0.657532         0.164303         0.746019
 H        -0.733217        -0.973497        -0.540545
 H         2.682715        -1.575112         0.389954
 H         2.262140        -1.433345        -1.485500
 H         5.455326         0.879000        -1.445114
 H         5.454119        -0.086149         0.076536
 H         5.234913        -0.748373        -1.495941
 H         0.860405         2.033010        -1.188664
 H         3.240542         2.294285         0.499500
