19
Iteration:   511
 C        -0.047403        -0.713543         0.057887
 C         1.329459        -0.018125        -0.039294
 C         2.510115        -0.982367        -0.467002
 C         3.383528         0.293677        -0.793712
 C         4.838784         0.278739        -1.093748
 O         2.689871         0.844469        -1.896037
 C         1.697847         1.323014        -0.976800
 C         2.644026         1.350495         0.201315
 O         1.826357         0.622641         1.206050
 H        -0.112784        -1.316865         0.990448
 H        -0.863987         0.094484         0.197306
 H        -0.126226        -1.333515        -0.782616
 H         2.870916        -1.520342         0.499173
 H         2.300475        -1.513219        -1.342411
 H         5.445522         1.114728        -0.843473
 H         5.232644        -0.586028        -0.468055
 H         4.901805        -0.164682        -2.073117
 H         0.963575         2.050899        -1.371495
 H         3.195227         2.154983         0.663117
