19
Iteration:   141
 C         0.005300        -0.650488         0.206699
 C         1.321289        -0.119892        -0.093412
 C         2.449965        -1.007070        -0.542169
 C         3.366067         0.305218        -0.833082
 C         4.880031         0.235748        -0.928056
 O         2.705749         0.960610        -1.947830
 C         1.717121         1.230713        -0.956621
 C         2.546054         1.364412         0.205568
 O         1.859329         0.616586         1.086998
 H         0.122104        -1.470492         0.962352
 H        -0.628667         0.133536         0.675354
 H        -0.535105        -1.019741        -0.757038
 H         2.911851        -1.751651         0.178707
 H         2.106286        -1.584715        -1.451997
 H         5.285133         0.302454        -1.983824
 H         5.218588         1.168232        -0.418301
 H         5.391998        -0.644182        -0.374896
 H         0.908090         1.932821        -1.104486
 H         3.091934         2.231208         0.425799
