19
Iteration:  3618charge 0 multiplicity 1
 C        -0.121412        -0.667425         0.015412
 C         1.287343        -0.088448        -0.045295
 C         2.494769        -0.888688        -0.522061
 C         3.450268         0.263173        -0.787828
 C         4.893768         0.137539        -1.038259
 O         2.626475         0.921886        -1.851607
 C         1.632736         1.241682        -0.853523
 C         2.652781         1.411448         0.214220
 O         1.939125         0.634216         1.156049
 H        -0.012059        -1.520975         0.717371
 H        -0.961063         0.037363         0.236277
 H        -0.358208        -1.051211        -0.951395
 H         2.873658        -1.589738         0.282456
 H         2.477842        -1.552602        -1.375292
 H         5.211727         1.124802        -1.281954
 H         5.431286        -0.276654        -0.203749
 H         4.999094        -0.409051        -1.978064
 H         0.902294         1.941613        -1.226864
 H         3.246616         2.325324         0.218193
