19
Iteration:  3380
 C        -0.191619        -0.645270         0.006505
 C         1.307862        -0.012932        -0.077849
 C         2.621706        -0.868673        -0.388607
 C         3.418398         0.273236        -0.792142
 C         4.940463         0.218248        -1.095102
 O         2.545163         0.831858        -1.956392
 C         1.706150         1.200134        -0.875494
 C         2.687958         1.394850         0.232728
 O         1.859607         0.607894         1.203751
 H        -0.137297        -1.432052         0.805873
 H        -0.867335         0.113019         0.349537
 H        -0.349381        -0.880759        -1.014647
 H         2.870671        -1.606512         0.439638
 H         2.448359        -1.557195        -1.225177
 H         5.493177         1.070067        -0.777753
 H         5.520258        -0.759612        -0.706384
 H         4.940632         0.004486        -2.222540
 H         0.922074         1.808832        -1.225936
 H         3.131789         2.324354         0.594249
