19
Iteration:  1854charge 0 multiplicity 1
 C        -0.049791        -0.576554         0.096174
 C         1.316135        -0.095875         0.012136
 C         2.553196        -0.967449        -0.427620
 C         3.419579         0.312016        -0.715216
 C         4.838348         0.189863        -1.083800
 O         2.599570         0.928726        -1.935231
 C         1.696298         1.162914        -0.950487
 C         2.672088         1.317426         0.177102
 O         1.849260         0.651807         1.139417
 H        -0.233985        -1.364719         0.862037
 H        -0.642085         0.340225         0.059760
 H        -0.165700        -1.160765        -0.903645
 H         2.776468        -1.550039         0.393502
 H         2.366991        -1.569657        -1.429337
 H         5.363594         1.207035        -1.038626
 H         5.355944        -0.528866        -0.492059
 H         4.949287        -0.138339        -2.136107
 H         0.918962         1.907940        -1.090538
 H         3.121105         2.295893         0.306416
