19
Iteration:  1444
 C         0.000799        -0.689197         0.230176
 C         1.314180        -0.149454        -0.105726
 C         2.506274        -0.964100        -0.428374
 C         3.322004         0.340142        -0.839903
 C         4.895952         0.096919        -0.884941
 O         2.709823         0.910789        -2.066402
 C         1.591994         1.301586        -0.986077
 C         2.634389         1.419090         0.127840
 O         1.893421         0.716329         1.131253
 H         0.128166        -1.391021         1.114213
 H        -0.791143        -0.018909         0.571694
 H        -0.617340        -1.275687        -0.407154
 H         2.823264        -1.605078         0.485470
 H         2.479727        -1.569547        -1.301162
 H         5.298457         1.113448        -0.698442
 H         5.248207        -0.628515        -0.161738
 H         5.130760        -0.189053        -1.961407
 H         0.646146         1.831183        -1.413616
 H         3.161271         2.281776         0.459181
