19
Iteration:  4569charge 0 multiplicity 1
 C        -0.087798        -0.511374         0.085137
 C         1.343983        -0.099805        -0.021194
 C         2.517878        -1.005917        -0.453947
 C         3.481944         0.279796        -0.770275
 C         4.913726         0.349893        -1.112232
 O         2.626118         0.796987        -1.930014
 C         1.657881         1.143059        -0.969884
 C         2.685725         1.315387         0.238434
 O         1.794244         0.660348         1.202254
 H        -0.450221        -0.891084         1.073315
 H        -0.847106         0.244071        -0.112497
 H        -0.271857        -1.297670        -0.643440
 H         2.968093        -1.654764         0.319454
 H         2.339182        -1.590835        -1.348844
 H         5.515371         1.227874        -0.808661
 H         5.410906        -0.619080        -0.775387
 H         4.928874         0.209781        -2.218383
 H         0.824854         1.896501        -1.157718
 H         3.040207         2.335947         0.460912
