19
Iteration:  1861
 C        -0.057389        -0.569978         0.049223
 C         1.368969        -0.089951         0.049721
 C         2.591013        -0.914682        -0.377757
 C         3.424397         0.266237        -0.823166
 C         4.822476         0.180021        -1.149528
 O         2.629607         0.882027        -1.968482
 C         1.706570         1.213567        -0.873383
 C         2.645962         1.341584         0.213599
 O         1.791286         0.634737         1.154158
 H        -0.284988        -1.357837         0.766122
 H        -0.751651         0.265765         0.016952
 H        -0.109244        -1.121011        -0.953437
 H         2.968911        -1.643445         0.428147
 H         2.336197        -1.445932        -1.211637
 H         5.316597         1.200637        -1.000187
 H         5.270636        -0.505598        -0.323121
 H         4.896166        -0.209066        -2.142624
 H         0.917544         1.922710        -0.999415
 H         3.024836         2.338327         0.477745
