19
Iteration:  4228charge 0 multiplicity 1
 C        -0.035594        -0.630174         0.075204
 C         1.277145        -0.029895        -0.038426
 C         2.599035        -0.898857        -0.467099
 C         3.451716         0.293064        -0.695697
 C         4.866846         0.191187        -1.061559
 O         2.609628         0.860460        -1.969681
 C         1.628033         1.152335        -0.952253
 C         2.711711         1.321243         0.235049
 O         1.777078         0.676025         1.156536
 H         0.030993        -1.111993         1.138262
 H        -0.898011         0.051925         0.188662
 H        -0.246460        -1.318921        -0.794845
 H         2.883575        -1.632129         0.266556
 H         2.458801        -1.355304        -1.473843
 H         5.113758         1.089601        -1.749128
 H         5.553819         0.337622        -0.222309
 H         5.175389        -0.669602        -1.660130
 H         0.759095         1.824776        -1.331436
 H         3.333717         2.247968         0.600459
