19
Iteration:  4520charge 0 multiplicity 1
 C        -0.022991        -0.702586         0.136826
 C         1.353960        -0.104819         0.019614
 C         2.461183        -0.925770        -0.393771
 C         3.398988         0.252840        -0.888128
 C         4.875249         0.162867        -0.980008
 O         2.707098         0.999235        -2.036978
 C         1.620048         1.206444        -0.967651
 C         2.646244         1.372787         0.138554
 O         1.841733         0.662000         1.183451
 H        -0.024926        -1.609938         0.797803
 H        -0.720511         0.025066         0.704404
 H        -0.570688        -0.893741        -0.823865
 H         2.866580        -1.617452         0.368667
 H         2.268191        -1.593132        -1.282574
 H         5.160998         1.241537        -1.218130
 H         5.366364        -0.158898        -0.079550
 H         5.141738        -0.566732        -1.765138
 H         0.875790         1.999941        -1.130001
 H         3.208246         2.291242         0.386569
