19
Iteration:  4635
 C         0.032106        -0.749449         0.160587
 C         1.354856        -0.055981        -0.085765
 C         2.447972        -0.890596        -0.552335
 C         3.374169         0.271158        -0.831854
 C         4.925524         0.060604        -0.963321
 O         2.675688         0.968414        -1.959985
 C         1.681378         1.245016        -0.935349
 C         2.613120         1.462672         0.217885
 O         1.804727         0.655735         1.162893
 H         0.260619        -1.369769         1.050550
 H        -0.717288         0.047694         0.491451
 H        -0.345852        -1.292102        -0.726373
 H         2.812221        -1.557371         0.269193
 H         2.112615        -1.475509        -1.410509
 H         5.338233         1.022767        -1.362395
 H         5.426412        -0.352481        -0.055058
 H         4.987865        -0.703680        -1.751424
 H         0.820827         1.914006        -1.355579
 H         2.812898         2.499931         0.574893
