19
Iteration:  4062
 C        -0.050146        -0.691959         0.039767
 C         1.324737        -0.079403         0.006292
 C         2.526743        -0.947112        -0.436792
 C         3.363157         0.339035        -0.782654
 C         4.879218         0.109000        -1.061152
 O         2.673684         0.928114        -1.893586
 C         1.547151         1.247032        -0.877198
 C         2.620430         1.380695         0.164975
 O         1.919921         0.669027         1.133841
 H        -0.240465        -1.343008         0.834644
 H        -0.800950         0.160806        -0.018687
 H        -0.022576        -1.065012        -0.975057
 H         2.853092        -1.464201         0.456072
 H         2.444515        -1.524948        -1.311627
 H         5.296800         0.817799        -1.743798
 H         5.459262         0.300456        -0.235090
 H         5.185133        -0.855353        -1.429651
 H         0.846459         1.799014        -1.420378
 H         3.286290         2.171452         0.458467
