19
Iteration:   191
 C         0.000544        -0.641569        -0.005669
 C         1.326099        -0.031572        -0.081594
 C         2.616695        -0.926051        -0.413038
 C         3.388030         0.230439        -0.778565
 C         4.854756         0.185449        -1.103192
 O         2.635966         0.867426        -1.890801
 C         1.603440         1.236618        -0.943554
 C         2.636920         1.445853         0.259432
 O         1.832036         0.585638         1.201671
 H        -0.113810        -1.251421         0.891433
 H        -0.654289         0.187214         0.069081
 H        -0.262063        -1.183897        -0.937865
 H         2.782960        -1.474593         0.439628
 H         2.380305        -1.658429        -1.251528
 H         4.939097         0.772638        -2.031585
 H         5.378329         0.719240        -0.358345
 H         5.364494        -0.782105        -1.300566
 H         0.709136         1.881496        -1.228712
 H         3.212881         2.383211         0.625461
