19
Iteration:  4847
 C        -0.064796        -0.602197         0.122556
 C         1.282174        -0.092425        -0.048362
 C         2.414673        -1.001886        -0.530787
 C         3.414004         0.329032        -0.749112
 C         4.964217         0.266207        -1.006482
 O         2.680649         0.886942        -1.965975
 C         1.647037         1.246646        -0.940484
 C         2.636670         1.319246         0.153547
 O         1.879505         0.614421         1.203785
 H        -0.215255        -1.424024         0.877240
 H        -0.777425         0.121378         0.455895
 H        -0.478833        -0.870617        -0.879344
 H         2.812358        -1.472452         0.372900
 H         2.364208        -1.633613        -1.413003
 H         5.586365         1.128182        -0.932369
 H         5.534510        -0.497819        -0.384173
 H         5.202179        -0.218974        -2.019376
 H         0.835269         1.817531        -1.156077
 H         2.989847         2.288710         0.355943
