19
Iteration:  1320
 C        -0.005099        -0.719958         0.247107
 C         1.263373        -0.027105        -0.068954
 C         2.388523        -0.921712        -0.452880
 C         3.387429         0.338368        -0.818666
 C         4.823908         0.157382        -0.932583
 O         2.749579         0.930692        -1.941958
 C         1.662707         1.148914        -1.045687
 C         2.722629         1.339448         0.099297
 O         1.880480         0.717687         1.138578
 H         0.239223        -1.659289         0.750131
 H        -0.780788        -0.215746         0.841950
 H        -0.561610        -1.055120        -0.719756
 H         2.846883        -1.611608         0.225916
 H         2.241080        -1.477013        -1.498144
 H         5.178672         1.174903        -1.308978
 H         5.103691         0.008061         0.102641
 H         5.064757        -0.686600        -1.571718
 H         0.900274         1.816572        -1.412479
 H         3.113295         2.389429         0.203062
