19
Iteration:  3465charge 0 multiplicity 1
 C        -0.017029        -0.620956         0.189262
 C         1.303922        -0.079933        -0.068511
 C         2.472836        -0.937176        -0.586288
 C         3.452318         0.300087        -0.773608
 C         4.869905         0.148923        -0.958331
 O         2.666062         1.018190        -1.946188
 C         1.642171         1.194705        -0.924657
 C         2.659046         1.283384         0.174137
 O         1.825604         0.614561         1.123941
 H        -0.113491        -1.467653         0.949360
 H        -0.730096         0.216886         0.592952
 H        -0.448048        -1.018871        -0.741428
 H         2.911407        -1.786341         0.029770
 H         2.354536        -1.229511        -1.625066
 H         5.058563         1.026209        -1.586957
 H         5.466206         0.250955         0.050294
 H         5.211525        -0.791058        -1.511652
 H         0.836292         1.950792        -0.972685
 H         3.330686         2.093649         0.437123
