19
Iteration:  3917
 C        -0.086615        -0.672349        -0.034325
 C         1.315169        -0.044875         0.040312
 C         2.541355        -0.984039        -0.401529
 C         3.405744         0.266558        -0.754208
 C         4.949906         0.172112        -1.176921
 O         2.605278         0.916488        -1.921334
 C         1.676775         1.185048        -0.896328
 C         2.701666         1.374201         0.260037
 O         1.782521         0.718281         1.153744
 H         0.060146        -1.367757         0.757954
 H        -0.769544         0.142784         0.195896
 H        -0.178960        -1.239656        -1.006589
 H         2.751213        -1.562328         0.529540
 H         2.185115        -1.429098        -1.373228
 H         5.464625         1.080178        -1.167606
 H         5.661903        -0.460465        -0.545428
 H         4.880549        -0.393014        -2.076625
 H         0.841700         1.996282        -0.959332
 H         3.189698         2.355266         0.577869
