19
Iteration:   396charge 0 multiplicity 1
 C        -0.027797        -0.717409         0.018272
 C         1.230179        -0.032425        -0.005142
 C         2.585715        -0.907366        -0.399452
 C         3.384913         0.321878        -0.748527
 C         4.913143         0.157973        -1.106005
 O         2.643295         0.898150        -1.924948
 C         1.635116         1.301934        -0.960404
 C         2.657129         1.325985         0.207753
 O         1.816622         0.643759         1.174732
 H        -0.072473        -1.585239         0.704410
 H        -0.876879        -0.066645         0.294479
 H        -0.080197        -1.076341        -1.068133
 H         2.906900        -1.541377         0.427497
 H         2.573127        -1.616201        -1.296766
 H         5.196093         1.077154        -1.651486
 H         5.691139         0.200017        -0.286287
 H         5.065801        -0.784977        -1.625707
 H         0.750971         1.972730        -1.092598
 H         3.283901         2.183036         0.615202
