19
Iteration:  4028charge 0 multiplicity 1
 C        -0.013554        -0.713070         0.206146
 C         1.264276        -0.012270        -0.167471
 C         2.505980        -0.898776        -0.549035
 C         3.411814         0.301182        -0.824761
 C         4.917272         0.122282        -0.934585
 O         2.616880         0.897100        -1.943471
 C         1.623205         1.305120        -0.927277
 C         2.687522         1.373530         0.236493
 O         1.855171         0.639508         1.078523
 H         0.183038        -1.461159         0.877544
 H        -0.840587        -0.127963         0.664647
 H        -0.468344        -1.355583        -0.519740
 H         2.684569        -1.492182         0.355238
 H         2.516660        -1.505868        -1.433457
 H         5.343038         0.919260        -1.457673
 H         5.254373         0.108080         0.068177
 H         5.210082        -0.827734        -1.351589
 H         0.887386         2.028484        -1.244174
 H         3.259665         2.234129         0.489419
