19
Iteration:  2342
 C        -0.042422        -0.612527         0.261067
 C         1.262118        -0.062727        -0.105181
 C         2.460774        -0.907926        -0.636131
 C         3.381740         0.301958        -0.796348
 C         4.880209         0.149654        -0.899644
 O         2.637548         0.962725        -1.940269
 C         1.692112         1.238099        -0.950495
 C         2.698571         1.325212         0.177580
 O         1.898459         0.561035         1.118880
 H         0.084776        -1.047913         1.235796
 H        -0.871031         0.123156         0.283787
 H        -0.278642        -1.334273        -0.582057
 H         2.891788        -1.671809         0.049761
 H         2.251819        -1.384324        -1.599935
 H         5.373187         1.170979        -1.099876
 H         5.157382        -0.455313        -0.037132
 H         5.195941        -0.449185        -1.817371
 H         0.864596         1.968080        -1.188221
 H         3.100516         2.355189         0.377104
