19
Iteration:  4769
 C        -0.028369        -0.675649         0.120857
 C         1.335278        -0.061778        -0.061264
 C         2.577299        -0.956955        -0.554801
 C         3.397103         0.329177        -0.786225
 C         4.880511         0.143322        -1.010416
 O         2.647211         0.903675        -1.919184
 C         1.669402         1.274550        -0.967094
 C         2.639669         1.384337         0.188990
 O         1.770649         0.678793         1.214411
 H        -0.060916        -1.239662         1.029793
 H        -0.837491         0.119229         0.081374
 H        -0.382850        -1.581794        -0.476872
 H         2.800208        -1.661351         0.224293
 H         2.271747        -1.526383        -1.456186
 H         5.579249         1.017297        -1.104015
 H         5.337239        -0.636450        -0.381685
 H         4.946345        -0.296596        -2.062938
 H         0.977590         2.091086        -1.252241
 H         3.372660         1.994643         0.608694
