19
Iteration:  2205
 C        -0.082648        -0.727100        -0.005115
 C         1.285964        -0.015449        -0.043022
 C         2.485009        -0.850143        -0.472042
 C         3.484097         0.288565        -0.761489
 C         4.914883         0.126655        -1.169690
 O         2.562508         0.934098        -1.819758
 C         1.663753         1.227728        -0.843504
 C         2.692660         1.351124         0.251383
 O         1.902788         0.664201         1.159022
 H        -0.240649        -1.404019         0.873316
 H        -0.899350         0.042512        -0.048526
 H        -0.237118        -1.315510        -0.848408
 H         2.666131        -1.600301         0.302442
 H         2.333011        -1.444167        -1.523567
 H         5.430952         0.998912        -1.424248
 H         5.384734        -0.541520        -0.429934
 H         4.967646        -0.546249        -2.096087
 H         0.950881         2.054253        -1.202387
 H         3.218421         2.209299         0.593164
