19
Iteration:  1702
 C        -0.128667        -0.638823         0.009462
 C         1.284254        -0.073348        -0.089556
 C         2.534387        -0.986755        -0.399705
 C         3.476061         0.279480        -0.618350
 C         4.854690         0.280427        -1.095518
 O         2.587986         0.753191        -1.947280
 C         1.687340         1.261899        -0.906042
 C         2.714622         1.396624         0.187971
 O         1.888926         0.683274         1.162242
 H        -0.180642        -1.354932         0.849148
 H        -0.844718         0.141311         0.163589
 H        -0.338122        -1.076909        -1.014250
 H         2.775598        -1.576707         0.430741
 H         2.526320        -1.732221        -1.362306
 H         5.070449         1.248385        -1.689494
 H         5.643893         0.198302        -0.411500
 H         4.868220        -0.579803        -1.829143
 H         0.902785         2.046182        -1.005553
 H         3.217076         2.300883         0.467784
