19
Iteration:  4082
 C        -0.118368        -0.644716        -0.022653
 C         1.331469        -0.069744        -0.098682
 C         2.527645        -0.894309        -0.361181
 C         3.449277         0.292080        -0.734815
 C         4.841028         0.226287        -1.116046
 O         2.632291         0.823277        -1.946339
 C         1.684017         1.194885        -0.917025
 C         2.664765         1.406454         0.248403
 O         1.916162         0.631864         1.216630
 H        -0.198757        -1.327313         0.790528
 H        -0.992942         0.093802         0.202429
 H        -0.500130        -1.228526        -0.900460
 H         2.782553        -1.523574         0.561803
 H         2.358448        -1.437259        -1.316055
 H         5.113395         1.013477        -1.750230
 H         5.584277         0.255980        -0.280281
 H         4.966884        -0.714715        -1.677059
 H         0.915785         1.887694        -1.227322
 H         2.986400         2.400546         0.392961
