19
Iteration:  3123
 C         0.017796        -0.697720         0.236922
 C         1.266110        -0.079473        -0.115982
 C         2.516773        -0.855811        -0.513096
 C         3.386235         0.296483        -0.706044
 C         4.909136         0.087264        -1.020693
 O         2.644411         0.874810        -1.964358
 C         1.729306         1.287573        -0.982795
 C         2.632103         1.387976         0.175102
 O         1.786194         0.685428         1.087008
 H         0.076838        -1.201818         1.185611
 H        -0.752749         0.037462         0.377658
 H        -0.421621        -1.436564        -0.448490
 H         2.718197        -1.438620         0.363602
 H         2.370927        -1.480990        -1.343565
 H         5.460800         1.124090        -0.930468
 H         5.332315        -0.685735        -0.324334
 H         4.991233        -0.326973        -2.019716
 H         0.921809         1.978187        -1.307976
 H         3.263826         2.191491         0.688928
