19
Iteration:  3595charge 0 multiplicity 1
 C         0.001385        -0.702742        -0.002342
 C         1.350408        -0.096145         0.008729
 C         2.511876        -0.860204        -0.346700
 C         3.410778         0.302527        -0.840735
 C         4.874940         0.108038        -1.161248
 O         2.628213         0.958384        -1.962365
 C         1.696366         1.311869        -0.884692
 C         2.716939         1.317479         0.285353
 O         1.721076         0.643658         1.207477
 H        -0.040265        -1.562935         0.638224
 H        -0.809068         0.072675         0.046988
 H        -0.143246        -1.000232        -1.006691
 H         2.940555        -1.517177         0.463488
 H         2.367182        -1.564566        -1.135891
 H         5.474531         1.002287        -1.213367
 H         5.118526        -0.593098        -0.423630
 H         4.809601        -0.277481        -2.176662
 H         0.898252         1.936157        -1.312234
 H         3.382292         2.143139         0.596449
