19
Iteration:   728charge 0 multiplicity 1
 C        -0.023068        -0.693953        -0.035385
 C         1.289885        -0.073630         0.012014
 C         2.504691        -0.961233        -0.439314
 C         3.398693         0.268910        -0.765550
 C         4.863851         0.180379        -1.152446
 O         2.650563         0.906845        -1.878989
 C         1.700062         1.230826        -0.927094
 C         2.704516         1.415644         0.232734
 O         1.802885         0.691234         1.188951
 H        -0.026349        -1.442387         0.786438
 H        -0.723032         0.147574         0.204678
 H        -0.243134        -1.255824        -0.874868
 H         2.834225        -1.649791         0.459714
 H         2.310762        -1.538308        -1.309876
 H         5.256733         1.144957        -1.286991
 H         5.397049        -0.383619        -0.276278
 H         4.912515        -0.435328        -2.036887
 H         0.917159         1.957882        -1.210152
 H         3.187412         2.321877         0.581189
