19
Iteration:  3973
 C        -0.062115        -0.578192         0.170333
 C         1.298671        -0.122494        -0.057625
 C         2.543248        -0.901845        -0.521096
 C         3.394347         0.282957        -0.800663
 C         5.023187         0.228696        -0.934578
 O         2.556718         0.866444        -1.925856
 C         1.615522         1.210171        -0.958470
 C         2.700242         1.311775         0.149549
 O         1.821114         0.619245         1.077032
 H         0.009803        -1.271596         0.954927
 H        -0.628726         0.245315         0.676667
 H        -0.594240        -0.892234        -0.761032
 H         2.809313        -1.602767         0.288435
 H         2.444882        -1.612057        -1.316292
 H         5.428694         1.171497        -0.764117
 H         5.320110        -0.552524        -0.265092
 H         5.250965         0.083469        -1.970833
 H         0.883959         2.055010        -1.124143
 H         3.211448         2.262831         0.379320
