19
Iteration:  2627
 C        -0.072354        -0.605389         0.234656
 C         1.267294        -0.084721        -0.113178
 C         2.473568        -0.891219        -0.510075
 C         3.379210         0.322154        -0.895201
 C         4.914814         0.163463        -0.880023
 O         2.631227         0.822019        -1.974287
 C         1.632967         1.230968        -0.953019
 C         2.682903         1.304348         0.119042
 O         1.962368         0.689877         1.128819
 H         0.001995        -1.631929         0.610015
 H        -0.747723         0.108632         0.872109
 H        -0.697113        -0.632170        -0.721588
 H         2.736819        -1.475749         0.327401
 H         2.395773        -1.747514        -1.303647
 H         5.201353         1.182220        -0.869975
 H         5.106318        -0.263410         0.086401
 H         5.489919        -0.436412        -1.647349
 H         0.840547         2.049042        -1.140972
 H         3.180147         2.216538         0.371354
