19
Iteration:  3015charge 0 multiplicity 1
 C        -0.105215        -0.680100         0.286850
 C         1.267123        -0.066115        -0.072012
 C         2.469410        -0.984973        -0.532688
 C         3.384380         0.291320        -0.832005
 C         4.911265         0.171671        -0.935705
 O         2.726510         0.845243        -1.933575
 C         1.665232         1.251333        -0.968820
 C         2.692209         1.361422         0.099511
 O         1.834137         0.707748         1.106490
 H         0.020632        -1.583419         0.868872
 H        -0.595034         0.121251         0.886028
 H        -0.647161        -0.812749        -0.704426
 H         2.777598        -1.712758         0.215329
 H         2.171548        -1.471138        -1.457756
 H         5.330210         1.124704        -1.394668
 H         5.448163         0.249637        -0.022310
 H         5.362453        -0.570954        -1.507775
 H         1.048399         2.097488        -1.380372
 H         3.042680         2.407441         0.277439
