19
Iteration:  4357charge 0 multiplicity 1
 C         0.006380        -0.740585         0.189735
 C         1.335437        -0.065890        -0.061109
 C         2.506701        -0.876106        -0.499657
 C         3.411929         0.341613        -0.757254
 C         4.872213         0.116941        -1.003830
 O         2.647078         0.849930        -1.941560
 C         1.685410         1.214722        -0.994374
 C         2.628459         1.461377         0.206530
 O         1.813774         0.676659         1.122074
 H         0.050102        -1.443632         0.969625
 H        -0.695151         0.067330         0.467056
 H        -0.345574        -1.283267        -0.708447
 H         2.765513        -1.622607         0.289999
 H         2.247624        -1.368609        -1.492049
 H         5.546201         0.992915        -0.654087
 H         5.311039        -0.765625        -0.571840
 H         5.098856        -0.039822        -2.066976
 H         0.809048         1.876822        -1.325512
 H         2.824036         2.573922         0.336025
