19
Iteration:  1919
 C        -0.014951        -0.700903         0.050717
 C         1.348084        -0.072667        -0.014553
 C         2.516415        -0.882767        -0.476807
 C         3.363267         0.298963        -0.804006
 C         4.747171         0.122673        -1.118561
 O         2.687472         0.916594        -1.878621
 C         1.694784         1.255201        -0.957406
 C         2.691875         1.374342         0.235801
 O         1.853543         0.685297         1.233188
 H        -0.082901        -1.727942         0.520201
 H        -0.868814        -0.119583         0.456823
 H        -0.306261        -0.799985        -1.081701
 H         2.858169        -1.403153         0.335468
 H         2.267596        -1.586284        -1.348512
 H         5.179840         0.977410        -1.807226
 H         5.271465         0.029476        -0.173657
 H         4.963288        -0.871590        -1.642345
 H         0.915909         1.807558        -1.461446
 H         3.331158         2.168192         0.647797
