19
Iteration:  3480
 C        -0.129388        -0.635472         0.202451
 C         1.305527        -0.171681        -0.070751
 C         2.444888        -0.971783        -0.672624
 C         3.331154         0.281138        -0.828672
 C         4.844644         0.283435        -0.888847
 O         2.685759         0.956681        -1.918483
 C         1.673796         1.258961        -0.946702
 C         2.720946         1.326041         0.188933
 O         1.974317         0.602419         1.133739
 H        -0.055400        -1.410168         1.005729
 H        -0.568188         0.264888         0.514660
 H        -0.717175        -0.971155        -0.659853
 H         2.737674        -1.732437         0.060915
 H         2.059608        -1.416277        -1.612398
 H         5.429494         1.023070        -1.512176
 H         5.286741         0.246639         0.228000
 H         5.262276        -0.706834        -1.350290
 H         0.929999         1.868745        -1.418148
 H         3.122431         2.275277         0.582830
