19
Iteration:  4650
 C        -0.042520        -0.747327         0.231792
 C         1.286935        -0.079466        -0.045126
 C         2.485086        -0.986360        -0.484270
 C         3.434852         0.356798        -0.809005
 C         4.833434         0.081378        -1.024847
 O         2.761726         1.052459        -1.922777
 C         1.625089         1.241767        -1.019346
 C         2.570810         1.344967         0.161558
 O         1.860115         0.702130         1.133470
 H         0.061947        -1.697939         0.699487
 H        -0.811692        -0.050521         0.644763
 H        -0.394402        -1.068056        -0.782536
 H         2.779696        -1.717111         0.254028
 H         2.389412        -1.415651        -1.501684
 H         5.497039         0.869586        -1.512330
 H         5.179939         0.075351         0.015889
 H         5.197260        -0.882365        -1.454734
 H         0.908551         2.007157        -1.210738
 H         3.261378         2.111478         0.438195
