19
Iteration:  1735charge 0 multiplicity 1
 C        -0.032515        -0.631953        -0.001206
 C         1.330697        -0.047342        -0.024830
 C         2.557856        -0.987353        -0.346412
 C         3.400435         0.321666        -0.878460
 C         4.906248         0.200450        -1.150960
 O         2.667017         0.835760        -1.863097
 C         1.644270         1.235144        -0.856837
 C         2.656227         1.358298         0.177382
 O         1.766513         0.696192         1.177484
 H        -0.123705        -1.490400         0.714120
 H        -0.741682         0.120755         0.320858
 H        -0.219994        -1.037391        -1.036207
 H         2.918540        -1.264703         0.595783
 H         2.348391        -1.958000        -1.119167
 H         5.157066         0.950589        -1.957174
 H         5.420611         0.232409        -0.250489
 H         5.080712        -0.849187        -1.571393
 H         0.825075         1.970422        -1.069580
 H         3.181485         2.265491         0.414848
