19
Iteration:  4342charge 0 multiplicity 1
 C        -0.036452        -0.761152         0.233074
 C         1.289036        -0.083324        -0.101011
 C         2.578909        -0.935750        -0.495357
 C         3.381427         0.322783        -0.691253
 C         4.790315         0.111489        -0.958352
 O         2.696991         0.902302        -1.934143
 C         1.636362         1.303257        -1.040640
 C         2.596461         1.454663         0.148862
 O         1.901829         0.700712         1.054706
 H         0.170593        -1.645453         0.900342
 H        -0.798901        -0.085130         0.776239
 H        -0.466510        -1.167315        -0.699855
 H         3.015793        -1.445361         0.377231
 H         2.716265        -1.562837        -1.353960
 H         5.317394         1.015141        -0.715107
 H         5.072199        -0.802665        -0.405467
 H         4.716835         0.004652        -2.050549
 H         0.899837         1.932065        -1.521228
 H         3.286150         2.009139         0.705633
