19
Iteration:  4034charge 0 multiplicity 1
 C        -0.023457        -0.703278         0.157666
 C         1.274101        -0.011548        -0.126435
 C         2.510988        -0.911786        -0.535189
 C         3.414559         0.336355        -0.827750
 C         4.875232         0.082870        -0.958034
 O         2.578117         0.914284        -1.983104
 C         1.692534         1.249912        -0.874674
 C         2.670876         1.370582         0.234890
 O         1.829140         0.650094         1.098863
 H         0.313130        -1.487709         1.047863
 H        -0.818210        -0.094255         0.573473
 H        -0.526696        -1.370915        -0.642988
 H         2.918958        -1.396801         0.409140
 H         2.526882        -1.501235        -1.542042
 H         5.466469         0.974008        -1.444954
 H         5.353282         0.297892         0.126757
 H         5.283993        -0.907097        -1.310615
 H         1.025593         2.049534        -1.355366
 H         3.296705         2.288479         0.524398
