19
Iteration:   984
 C        -0.096502        -0.683180         0.229903
 C         1.312325        -0.046434        -0.111336
 C         2.455757        -0.951327        -0.493707
 C         3.383837         0.281796        -0.873482
 C         4.885733         0.203303        -0.903670
 O         2.709972         0.940500        -1.923269
 C         1.596584         1.226770        -0.944876
 C         2.670846         1.388901         0.121649
 O         1.915397         0.617016         1.081808
 H         0.008305        -1.624710         0.716163
 H        -0.627446         0.037950         0.864613
 H        -0.558753        -0.816223        -0.811025
 H         2.763677        -1.487605         0.394596
 H         2.300689        -1.808411        -1.298599
 H         5.497827         1.063638        -1.484053
 H         5.187418         0.173072         0.093415
 H         5.169163        -0.804761        -1.366714
 H         0.732346         1.892788        -1.161995
 H         3.362432         2.254983         0.308247
