19
Iteration:  3363charge 0 multiplicity 1
 C        -0.077660        -0.575359         0.127755
 C         1.292214        -0.126418        -0.030435
 C         2.501239        -0.974526        -0.425055
 C         3.430853         0.363221        -0.806351
 C         4.883024         0.250359        -1.039979
 O         2.660518         0.860364        -1.902549
 C         1.603533         1.284772        -0.968797
 C         2.677199         1.257985         0.150764
 O         1.890583         0.587594         1.085681
 H        -0.230869        -1.381306         0.858427
 H        -0.748898         0.237330         0.479026
 H        -0.580432        -0.924100        -0.852817
 H         2.862587        -1.360278         0.524551
 H         2.621456        -1.762174        -1.180350
 H         5.399981         1.180993        -0.584497
 H         5.244699        -0.561890        -0.567252
 H         5.180582         0.215707        -2.040914
 H         0.845100         2.126866        -1.182469
 H         3.207034         2.131213         0.608150
