19
Iteration:  4387charge 0 multiplicity 1
 C        -0.150303        -0.705312         0.118301
 C         1.288610        -0.059044        -0.017549
 C         2.567645        -0.947329        -0.427224
 C         3.418726         0.240007        -0.827580
 C         4.944445         0.227962        -1.041671
 O         2.585537         0.913460        -1.961788
 C         1.691644         1.215951        -0.944471
 C         2.737601         1.324751         0.214922
 O         1.825602         0.701981         1.133483
 H        -0.380162        -1.268441         1.011151
 H        -0.875858         0.214208         0.053143
 H        -0.224171        -1.429328        -0.737920
 H         3.015037        -1.301400         0.534255
 H         2.406353        -1.772310        -1.144881
 H         5.246104         1.317957        -0.886035
 H         5.408049        -0.476225        -0.353770
 H         5.116110        -0.033681        -2.102811
 H         0.829650         1.904802        -1.288341
 H         3.241977         2.269488         0.362271
