19
Iteration:  2809charge 0 multiplicity 1
 C        -0.014909        -0.708752         0.348900
 C         1.288658        -0.034657        -0.072150
 C         2.467452        -0.868271        -0.573189
 C         3.429203         0.236625        -0.713870
 C         4.879450         0.104387        -0.933462
 O         2.728063         0.847943        -2.035467
 C         1.702986         1.266339        -1.032708
 C         2.631107         1.439082         0.135741
 O         1.790856         0.708671         1.085381
 H         0.209996        -1.526978         0.973194
 H        -0.690012        -0.082134         0.884334
 H        -0.552575        -1.229366        -0.481596
 H         2.709122        -1.584484         0.286681
 H         2.161341        -1.320802        -1.530561
 H         5.320624         1.118298        -1.135187
 H         5.218693        -0.369721        -0.019284
 H         5.245766        -0.579636        -1.798332
 H         0.791996         1.906002        -1.274322
 H         3.020759         2.386053         0.467894
