19
Iteration:  3431charge 0 multiplicity 1
 C        -0.079228        -0.766106         0.004942
 C         1.292587        -0.086873        -0.118543
 C         2.497287        -0.825026        -0.343147
 C         3.420557         0.343681        -0.761718
 C         4.826501         0.051286        -1.194192
 O         2.641774         0.941292        -1.922807
 C         1.696407         1.279213        -0.882565
 C         2.672516         1.389672         0.315681
 O         1.857945         0.636074         1.140839
 H         0.060688        -1.554015         0.737946
 H        -0.813554         0.109337         0.311054
 H        -0.426690        -1.155410        -1.005375
 H         2.917791        -1.306929         0.549088
 H         2.503873        -1.532432        -1.185027
 H         5.331344         1.023092        -1.531593
 H         5.441078        -0.211066        -0.264434
 H         5.136319        -0.694475        -1.953518
 H         0.978383         2.148762        -1.104066
 H         3.294265         2.143706         0.804140
