19
Iteration:  1425
 C        -0.032064        -0.665155         0.204391
 C         1.282894         0.016296        -0.084318
 C         2.523622        -0.876744        -0.452955
 C         3.466544         0.267985        -0.770650
 C         4.935169         0.225509        -0.986231
 O         2.551138         0.792940        -1.939523
 C         1.701409         1.214243        -1.020078
 C         2.661625         1.361632         0.156867
 O         1.809016         0.653536         1.070517
 H        -0.020181        -1.325152         1.087118
 H        -0.896691         0.109274         0.381603
 H        -0.279855        -1.294806        -0.649472
 H         2.818356        -1.399960         0.491897
 H         2.446644        -1.569356        -1.222344
 H         5.402175         1.183121        -0.967407
 H         5.298310        -0.552674        -0.150863
 H         5.128678        -0.284706        -1.954398
 H         1.026178         2.060987        -1.170699
 H         3.182221         2.239730         0.577793
