19
Iteration:   216
 C        -0.097671        -0.729930        -0.017787
 C         1.270364        -0.146633         0.047695
 C         2.569858        -0.925883        -0.344633
 C         3.411207         0.330826        -0.794654
 C         4.899026         0.220856        -1.137057
 O         2.671181         0.894629        -1.927565
 C         1.669040         1.246613        -0.896610
 C         2.723743         1.357046         0.224956
 O         1.792963         0.711524         1.141817
 H        -0.262755        -1.477277         0.795376
 H        -0.818184         0.066765         0.100705
 H        -0.318269        -1.270154        -1.033140
 H         2.964254        -1.618730         0.448444
 H         2.236699        -1.512130        -1.273855
 H         5.146744         0.976808        -1.928614
 H         5.550544         0.228026        -0.290401
 H         5.102861        -0.767660        -1.753594
 H         0.877006         1.997224        -0.985236
 H         3.092008         2.283414         0.606289
