19
Iteration:  2568charge 0 multiplicity 1
 C        -0.147971        -0.579440        -0.038200
 C         1.291585        -0.037825        -0.021231
 C         2.552902        -0.981782        -0.336078
 C         3.499679         0.292630        -0.735897
 C         4.912655         0.091511        -1.234961
 O         2.632076         0.886924        -1.890904
 C         1.612812         1.171089        -0.922601
 C         2.714477         1.435865         0.249440
 O         1.808444         0.673869         1.187829
 H        -0.206369        -1.054696         1.021120
 H        -0.970033         0.089846        -0.082092
 H        -0.054041        -1.448616        -0.746066
 H         2.805010        -1.621350         0.569050
 H         2.410498        -1.491842        -1.230043
 H         5.262234         1.152795        -1.525969
 H         5.689641        -0.121587        -0.475494
 H         4.976901        -0.428848        -2.167665
 H         0.756641         1.793810        -1.079578
 H         3.387745         2.290261         0.537477
