19
Iteration:  4704
 C        -0.106266        -0.583396         0.039844
 C         1.348461        -0.022666        -0.012585
 C         2.503161        -0.973306        -0.509749
 C         3.431555         0.272623        -0.816377
 C         4.874201         0.284205        -0.980069
 O         2.600875         0.838795        -1.874124
 C         1.639749         1.167560        -0.921693
 C         2.721002         1.325716         0.201934
 O         1.880723         0.625240         1.128385
 H        -0.204819        -1.600010         0.345200
 H        -0.590780         0.106635         0.770563
 H        -0.584061        -0.264478        -0.926507
 H         2.827375        -1.591088         0.313649
 H         2.242269        -1.581898        -1.398487
 H         5.011424         1.031253        -1.842202
 H         5.528405         0.611281        -0.156859
 H         5.305409        -0.698842        -1.335709
 H         0.766038         1.695430        -1.351340
 H         3.394198         2.049702         0.593094
