19
Iteration:  4681charge 0 multiplicity 1
 C        -0.059560        -0.656154         0.166985
 C         1.305149        -0.022123        -0.165263
 C         2.511692        -0.911219        -0.470354
 C         3.410515         0.331943        -0.786033
 C         4.946928         0.164165        -1.016372
 O         2.593101         0.850469        -1.991881
 C         1.694293         1.272801        -0.952187
 C         2.603653         1.352166         0.233070
 O         1.857177         0.573187         1.153282
 H         0.092861        -1.645781         0.480363
 H        -0.553532        -0.017152         1.005524
 H        -0.681297        -0.537352        -0.760854
 H         2.678940        -1.515281         0.419562
 H         2.482075        -1.515593        -1.396271
 H         5.362735         0.937878        -1.775492
 H         5.347092         0.484436        -0.029637
 H         5.327611        -0.870402        -1.172276
 H         1.015208         2.162054        -1.071863
 H         3.111313         2.191128         0.684555
