19
Iteration:   867charge 0 multiplicity 1
 C        -0.057635        -0.686530         0.023290
 C         1.356234        -0.057941        -0.054030
 C         2.545201        -0.897434        -0.349269
 C         3.385686         0.347047        -0.733992
 C         4.845035         0.133768        -1.186063
 O         2.679793         0.893505        -1.924761
 C         1.723467         1.226945        -0.984000
 C         2.610359         1.421974         0.275600
 O         1.805014         0.656250         1.226770
 H        -0.349521        -1.297292         0.958834
 H        -0.778680         0.099015        -0.046198
 H        -0.273194        -1.446199        -0.846306
 H         2.974037        -1.678211         0.322293
 H         2.274566        -1.446050        -1.297482
 H         5.656140         0.839888        -1.226019
 H         5.371967        -0.632148        -0.523385
 H         4.840512        -0.429696        -2.140563
 H         0.932358         1.855470        -1.416239
 H         3.038224         2.328888         0.584945
