19
Iteration:  2445
 C        -0.199168        -0.553961         0.100872
 C         1.260169        -0.105661         0.028991
 C         2.499334        -0.946173        -0.512406
 C         3.443198         0.363082        -0.823763
 C         4.914509         0.233466        -1.012311
 O         2.594591         0.844909        -1.949936
 C         1.692067         1.179224        -0.986025
 C         2.726632         1.316732         0.176459
 O         1.924150         0.621427         1.181950
 H        -0.041422        -1.616328         0.496884
 H        -0.703569         0.126113         0.849863
 H        -0.650452        -0.601109        -0.880741
 H         2.777175        -1.452343         0.391113
 H         2.341532        -1.625439        -1.344050
 H         5.412913         1.177078        -1.110983
 H         5.430035        -0.164658        -0.062816
 H         5.170838        -0.467097        -1.842757
 H         0.989958         1.946608        -1.294133
 H         3.274020         2.208305         0.513513
