19
Iteration:   327
 C        -0.059551        -0.684756         0.126084
 C         1.386594        -0.075719        -0.113696
 C         2.559775        -0.962041        -0.446818
 C         3.372075         0.289603        -0.775367
 C         4.850350         0.277929        -1.024534
 O         2.674477         0.859280        -1.945788
 C         1.605124         1.294909        -0.940839
 C         2.655439         1.354639         0.176911
 O         1.838148         0.661596         1.134566
 H        -0.171741        -1.342216         1.017783
 H        -0.848726         0.169318         0.392890
 H        -0.561888        -1.227703        -0.622562
 H         2.824471        -1.765293         0.399114
 H         2.570112        -1.537297        -1.317593
 H         5.299024         1.043220        -0.400642
 H         5.316572        -0.643327        -0.439699
 H         5.109467         0.116272        -2.066772
 H         0.765811         1.716075        -1.443260
 H         3.400986         2.042746         0.526350
