19
Iteration:  1096
 C        -0.000523        -0.589377         0.204248
 C         1.295219        -0.044814         0.009113
 C         2.510850        -0.983859        -0.538060
 C         3.413437         0.304029        -0.737504
 C         4.954102         0.197932        -0.947339
 O         2.586389         0.846626        -1.980769
 C         1.642088         1.219789        -1.012713
 C         2.658501         1.373385         0.145327
 O         1.825548         0.647804         1.089900
 H        -0.077633        -1.283948         1.141036
 H        -0.831106         0.071719         0.348846
 H        -0.193385        -1.192845        -0.699806
 H         2.855696        -1.737152         0.338019
 H         2.226447        -1.438831        -1.477729
 H         5.304794         1.197668        -1.036532
 H         5.700023        -0.405413        -0.249131
 H         4.986839        -0.216793        -1.969139
 H         0.865086         2.058600        -1.162700
 H         3.227924         2.146857         0.631233
