19
Iteration:  3785
 C        -0.099047        -0.620699         0.103126
 C         1.297171        -0.126263        -0.039488
 C         2.565147        -0.908634        -0.495594
 C         3.390386         0.331110        -0.720065
 C         4.884604         0.207470        -1.100918
 O         2.653027         0.870009        -1.943841
 C         1.722119         1.220722        -0.901106
 C         2.667275         1.289458         0.260427
 O         1.803459         0.688085         1.145825
 H        -0.273022        -1.430112         0.879328
 H        -0.780837         0.206602         0.403483
 H        -0.571897        -1.040344        -0.862562
 H         2.927769        -1.698661         0.179450
 H         2.285161        -1.413633        -1.494624
 H         5.495833         1.117034        -1.131948
 H         5.642628        -0.505935        -0.487639
 H         5.020686        -0.140466        -2.154727
 H         0.984887         1.911001        -1.267972
 H         3.174690         2.183801         0.526320
