19
Iteration:  3954
 C        -0.039766        -0.580057         0.051689
 C         1.309871        -0.016800        -0.063175
 C         2.519445        -0.958819        -0.380600
 C         3.431076         0.324447        -0.763838
 C         4.862085         0.221274        -1.003572
 O         2.577458         0.826961        -2.022354
 C         1.645328         1.232037        -0.934066
 C         2.642393         1.385090         0.226806
 O         1.936715         0.557939         1.143197
 H        -0.233563        -1.418353         0.806644
 H        -0.847009         0.186834         0.353699
 H        -0.454538        -0.993033        -0.861429
 H         2.892496        -1.503855         0.462015
 H         2.463854        -1.652436        -1.172283
 H         5.419989         1.208460        -0.730967
 H         5.233922        -0.613248        -0.445194
 H         5.116158         0.103028        -2.131326
 H         0.888419         1.831943        -1.323697
 H         3.192359         2.239002         0.599499
