19
Iteration:  4171
 C         0.072304        -0.691559         0.218320
 C         1.305027        -0.130383        -0.121038
 C         2.552682        -0.937057        -0.569590
 C         3.397473         0.345812        -0.842973
 C         4.959294         0.119592        -0.863118
 O         2.595991         0.909555        -2.011206
 C         1.615327         1.256865        -0.955658
 C         2.601775         1.331767         0.179827
 O         1.794457         0.737650         1.146265
 H         0.153727        -1.444780         0.977626
 H        -0.527120         0.175850         0.687830
 H        -0.535424        -1.132373        -0.604181
 H         2.871810        -1.486343         0.362660
 H         2.289469        -1.681444        -1.336499
 H         5.546545         1.046984        -0.627186
 H         5.124562        -0.609001        -0.136481
 H         5.160144        -0.235730        -1.881541
 H         0.850914         1.973516        -1.392156
 H         3.111182         2.337434         0.323617
