19
Iteration:  4168
 C         0.032956        -0.680797         0.218899
 C         1.356143        -0.116904        -0.122612
 C         2.537649        -0.936628        -0.568955
 C         3.380843         0.336449        -0.829898
 C         4.951038         0.124209        -0.872417
 O         2.598865         0.893678        -2.008110
 C         1.597968         1.240476        -0.941792
 C         2.601174         1.388597         0.186332
 O         1.806795         0.725466         1.120333
 H         0.194017        -1.472946         0.900358
 H        -0.458124         0.175027         0.703154
 H        -0.495174        -1.157582        -0.586250
 H         2.909482        -1.537740         0.332397
 H         2.331513        -1.647013        -1.383478
 H         5.430370         1.031236        -0.626850
 H         5.172418        -0.713944        -0.125121
 H         5.340187        -0.242419        -1.867658
 H         0.915139         1.920533        -1.325672
 H         3.013984         2.315049         0.431847
