19
Iteration:  3024charge 0 multiplicity 1
 C        -0.137489        -0.620935         0.200218
 C         1.269970        -0.074867        -0.029433
 C         2.462666        -0.987535        -0.511618
 C         3.394599         0.212343        -0.733825
 C         4.984282         0.233254        -0.979519
 O         2.704582         0.880492        -1.983953
 C         1.660148         1.212218        -1.011084
 C         2.683353         1.359832         0.122356
 O         1.881557         0.728571         1.154678
 H        -0.131494        -1.599505         0.734534
 H        -0.717809        -0.006686         0.815319
 H        -0.843584        -0.881171        -0.595827
 H         2.835709        -1.753052         0.162108
 H         2.335350        -1.438231        -1.430422
 H         5.171846         1.101557        -1.667765
 H         5.350518         0.232814         0.069791
 H         5.168374        -0.669202        -1.508420
 H         0.766019         1.715861        -1.316950
 H         3.225198         2.379191         0.410220
