19
Iteration:  3094charge 0 multiplicity 1
 C        -0.064020        -0.650606         0.000003
 C         1.286060        -0.048519         0.079129
 C         2.510009        -0.906570        -0.357686
 C         3.384024         0.276442        -0.736796
 C         4.894748         0.184308        -1.148924
 O         2.685748         0.845760        -1.924915
 C         1.685498         1.192833        -0.893366
 C         2.678159         1.402490         0.098469
 O         1.839573         0.686885         1.192729
 H        -0.304563        -1.396690         0.746055
 H        -0.936661         0.140976        -0.061648
 H        -0.145292        -1.267613        -0.926085
 H         2.743874        -1.605389         0.448173
 H         2.119034        -1.602059        -1.191939
 H         5.322451         1.085129        -1.556701
 H         5.463519        -0.115867        -0.328457
 H         4.970867        -0.519262        -1.979525
 H         0.926829         1.992820        -1.184641
 H         3.286855         2.199465         0.360039
