19
Iteration:  4853charge 0 multiplicity 1
 C        -0.089833        -0.582286         0.111851
 C         1.308399        -0.064096        -0.079128
 C         2.433758        -1.008119        -0.481235
 C         3.444554         0.331826        -0.782236
 C         4.937837         0.246289        -0.984478
 O         2.669176         0.913013        -1.916834
 C         1.614922         1.186062        -1.011994
 C         2.627889         1.270790         0.195505
 O         1.930777         0.607440         1.177849
 H        -0.227877        -1.424505         0.766574
 H        -0.762258         0.188822         0.631286
 H        -0.328596        -0.710053        -0.964108
 H         2.601256        -1.514588         0.492542
 H         2.325911        -1.668083        -1.369314
 H         5.371684         1.307325        -1.114394
 H         5.635034        -0.296486        -0.371181
 H         5.015383        -0.140590        -1.977152
 H         0.718419         1.905186        -1.295950
 H         3.068573         2.291063         0.499338
