19
Iteration:   543
 C        -0.089820        -0.744159         0.018210
 C         1.306271        -0.098483        -0.005650
 C         2.554258        -0.970411        -0.340570
 C         3.446490         0.324465        -0.791617
 C         4.923989         0.176976        -1.155007
 O         2.629032         0.961465        -1.916084
 C         1.687132         1.321061        -0.937481
 C         2.653877         1.388142         0.228938
 O         1.772617         0.639976         1.156104
 H        -0.112269        -1.464098         0.853636
 H        -0.763744         0.183794        -0.031626
 H        -0.285980        -1.263844        -0.894863
 H         2.903902        -1.672803         0.513715
 H         2.447152        -1.601049        -1.206008
 H         5.627545         0.985483        -1.372817
 H         5.330898        -0.542897        -0.379363
 H         4.923235        -0.428918        -2.074107
 H         0.855695         2.043992        -1.035498
 H         3.199979         2.208831         0.679476
