19
Iteration:  4925
 C        -0.076781        -0.709523         0.048222
 C         1.270632        -0.073137        -0.063834
 C         2.483982        -0.939792        -0.501561
 C         3.366794         0.324965        -0.758723
 C         4.776284         0.186359        -1.006104
 O         2.704645         0.927415        -1.922894
 C         1.630630         1.262973        -0.930402
 C         2.659865         1.353658         0.220472
 O         1.945806         0.623363         1.161561
 H        -0.036105        -1.692123         0.696050
 H        -0.759760        -0.043268         0.589269
 H        -0.205559        -0.872807        -1.022592
 H         2.973978        -1.521741         0.330420
 H         2.334013        -1.406087        -1.476835
 H         5.286851         0.738165        -1.822325
 H         5.461516         0.389488        -0.124394
 H         5.019083        -0.893933        -1.254413
 H         1.157633         2.211857        -1.268743
 H         3.363813         2.248864         0.531867
