19
Iteration:  1318
 C        -0.018794        -0.741369         0.266850
 C         1.267844        -0.027163        -0.082100
 C         2.390486        -0.914283        -0.474669
 C         3.371957         0.349756        -0.812952
 C         4.803019         0.161338        -0.930838
 O         2.757493         0.919592        -1.964145
 C         1.673002         1.147438        -1.048659
 C         2.730618         1.341984         0.112304
 O         1.881723         0.726801         1.141360
 H         0.182539        -1.696698         0.757071
 H        -0.802385        -0.141302         0.879732
 H        -0.521104        -1.072866        -0.709315
 H         2.886474        -1.602576         0.276580
 H         2.233844        -1.471085        -1.550368
 H         5.219613         1.102863        -1.264039
 H         5.169660        -0.032932         0.171866
 H         5.095786        -0.627179        -1.586984
 H         0.942254         1.841327        -1.353298
 H         3.095340         2.387371         0.271961
