19
Iteration:  3116charge 0 multiplicity 1
 C        -0.020953        -0.705709         0.166053
 C         1.274469        -0.061739        -0.124766
 C         2.485314        -0.886702        -0.499491
 C         3.392139         0.251032        -0.726612
 C         4.862470         0.108277        -1.058816
 O         2.666289         0.860354        -1.912696
 C         1.708959         1.266994        -0.982247
 C         2.654190         1.391412         0.230313
 O         1.851636         0.764854         1.137355
 H         0.073875        -1.277870         1.099289
 H        -0.855363         0.133175         0.236157
 H        -0.313397        -1.508262        -0.555628
 H         2.790130        -1.583345         0.308458
 H         2.490793        -1.627159        -1.399806
 H         5.420014         1.015130        -1.128436
 H         5.357151        -0.435811        -0.318156
 H         5.014013        -0.254772        -2.081189
 H         0.801436         1.785405        -1.453076
 H         2.998824         2.230210         0.736367
