19
Iteration:   711
 C        -0.067805        -0.714457         0.059648
 C         1.310777         0.035472        -0.056277
 C         2.567597        -0.816168        -0.377510
 C         3.403542         0.289068        -0.758024
 C         4.861177         0.130377        -1.134442
 O         2.678552         0.859201        -1.906483
 C         1.661820         1.276371        -0.881773
 C         2.676627         1.246218         0.209456
 O         1.789070         0.679263         1.183105
 H        -0.133913        -1.580665         0.719075
 H        -1.042701        -0.267519        -0.279840
 H         0.169379        -1.151300        -1.030319
 H         2.808078        -1.331378         0.525933
 H         2.287966        -1.360177        -1.342380
 H         5.322700         1.182057        -1.372767
 H         5.519124        -0.468567        -0.616104
 H         4.816559        -0.196428        -2.221238
 H         0.857106         1.966767        -1.109471
 H         3.290691         2.068004         0.671300
