19
Iteration:  2402charge 0 multiplicity 1
 C        -0.092804        -0.686194        -0.060909
 C         1.302236        -0.041188        -0.111703
 C         2.515079        -0.938848        -0.329075
 C         3.387914         0.271546        -0.771992
 C         4.861481         0.126198        -1.238437
 O         2.630970         0.910049        -1.860909
 C         1.686464         1.306385        -0.858627
 C         2.730857         1.382248         0.252392
 O         1.844135         0.667770         1.224548
 H        -0.274078        -1.536900         0.764972
 H        -0.870395         0.151065         0.122592
 H        -0.189793        -1.199550        -1.023732
 H         3.004633        -1.294067         0.619893
 H         2.496272        -1.728592        -1.084674
 H         5.396429         0.949430        -1.646316
 H         5.587682        -0.233605        -0.429053
 H         4.780276        -0.651601        -2.008318
 H         0.840443         1.844151        -1.246225
 H         3.272960         2.254328         0.631887
