19
Iteration:  1613charge 0 multiplicity 1
 C         0.039902        -0.751949         0.258913
 C         1.326237        -0.049954        -0.069125
 C         2.487334        -0.908716        -0.473430
 C         3.371996         0.259166        -0.724009
 C         4.890899         0.167391        -0.942650
 O         2.670370         0.864278        -2.021832
 C         1.690278         1.337209        -1.072391
 C         2.627444         1.357790         0.082344
 O         1.781869         0.695739         1.160798
 H         0.181287        -1.424474         1.090732
 H        -0.665525        -0.082614         0.746319
 H        -0.496527        -1.263721        -0.629064
 H         2.791010        -1.723983         0.175789
 H         2.147022        -1.186871        -1.560635
 H         5.454081         1.160292        -0.949641
 H         5.228170        -0.516376        -0.095023
 H         5.097243        -0.383437        -1.841344
 H         1.027853         2.116843        -1.296720
 H         3.132007         2.251327         0.505820
