19
Iteration:  4859
 C        -0.114219        -0.541877         0.103638
 C         1.309419        -0.065477        -0.092400
 C         2.479763        -0.975596        -0.425738
 C         3.430085         0.298578        -0.786403
 C         4.911633         0.262079        -1.002019
 O         2.668854         0.922904        -1.889918
 C         1.594577         1.149240        -1.015462
 C         2.645445         1.303740         0.210366
 O         1.949351         0.582844         1.138932
 H        -0.132911        -1.575666         0.578947
 H        -0.658549         0.233079         0.569516
 H        -0.457297        -0.718997        -0.917811
 H         2.617516        -1.656427         0.437891
 H         2.281375        -1.614157        -1.281434
 H         5.092531         1.305988        -1.168522
 H         5.544051        -0.203375        -0.187025
 H         4.960500        -0.187234        -2.047477
 H         0.916236         1.833700        -1.411406
 H         3.212501         2.156163         0.633095
