19
Iteration:  4390charge 0 multiplicity 1
 C        -0.149939        -0.703506         0.113337
 C         1.289053        -0.072966        -0.036636
 C         2.560981        -0.946486        -0.402310
 C         3.435497         0.242244        -0.818701
 C         4.912993         0.230161        -1.046329
 O         2.576590         0.905963        -1.961155
 C         1.725952         1.226031        -0.926872
 C         2.716935         1.334961         0.213232
 O         1.843940         0.687034         1.122502
 H        -0.382532        -1.207295         1.019761
 H        -0.822178         0.156099         0.021292
 H        -0.290502        -1.386181        -0.749770
 H         3.041038        -1.341813         0.528307
 H         2.428718        -1.790660        -1.150920
 H         5.154183         1.333829        -0.911994
 H         5.344083        -0.405681        -0.297394
 H         5.034960        -0.002614        -2.103133
 H         0.943727         1.945563        -1.325119
 H         3.264682         2.319775         0.330143
