19
Iteration:  1999charge 0 multiplicity 1
 C        -0.075900        -0.561414         0.234977
 C         1.308509        -0.051841        -0.039311
 C         2.446868        -0.963031        -0.587658
 C         3.379943         0.295977        -0.810716
 C         4.889914         0.275499        -0.941185
 O         2.623386         0.943119        -1.925423
 C         1.656245         1.175197        -0.936274
 C         2.708244         1.231844         0.159124
 O         1.924832         0.588221         1.076053
 H        -0.111087        -1.296153         1.126619
 H        -0.837864         0.324038         0.251552
 H        -0.325648        -1.197701        -0.596713
 H         2.734031        -1.787076         0.129368
 H         2.235082        -1.256438        -1.614728
 H         5.315225         1.235299        -0.817116
 H         5.320159        -0.367081        -0.109457
 H         5.313587        -0.175659        -1.910686
 H         0.861845         1.947061        -1.248461
 H         3.300883         2.079658         0.520690
