19
Iteration:  1850charge 0 multiplicity 1
 C        -0.048496        -0.594982         0.106600
 C         1.309286        -0.099778        -0.034860
 C         2.514309        -0.985713        -0.474690
 C         3.404911         0.317816        -0.679871
 C         4.860607         0.202981        -1.059307
 O         2.600941         0.937190        -1.918470
 C         1.652757         1.152878        -0.968130
 C         2.690417         1.322726         0.155320
 O         1.885454         0.664598         1.145425
 H        -0.256382        -1.235324         0.970383
 H        -0.726140         0.269414         0.179443
 H        -0.271078        -1.126731        -0.882999
 H         2.815674        -1.583367         0.452726
 H         2.438687        -1.543843        -1.328271
 H         5.408036         1.200228        -1.042768
 H         5.475377        -0.601768        -0.494011
 H         4.951016        -0.106852        -2.088904
 H         0.903137         1.881027        -1.225785
 H         3.215490         2.263287         0.383593
