19
Iteration:  3912charge 0 multiplicity 1
 C        -0.045517        -0.652200        -0.020543
 C         1.344213        -0.036435        -0.024869
 C         2.508174        -0.957289        -0.400960
 C         3.437369         0.275963        -0.779046
 C         4.945271         0.151451        -1.161267
 O         2.589250         0.892183        -1.910866
 C         1.700592         1.230549        -0.906192
 C         2.671339         1.386163         0.249764
 O         1.754077         0.689969         1.190771
 H         0.087428        -1.428073         0.812172
 H        -0.883261         0.020974         0.269268
 H        -0.248684        -1.262737        -0.860350
 H         2.825963        -1.465613         0.505083
 H         2.168701        -1.441393        -1.314359
 H         5.520014         1.152116        -1.376394
 H         5.618219        -0.409132        -0.560342
 H         4.987868        -0.519579        -2.088586
 H         0.958069         1.914807        -1.088210
 H         3.073573         2.186019         0.835361
