19
Iteration:  1986charge 0 multiplicity 1
 C         0.037956        -0.554860         0.243105
 C         1.348190        -0.122306        -0.093306
 C         2.360032        -1.032173        -0.624758
 C         3.366978         0.208358        -0.868184
 C         4.846734         0.258134        -0.858406
 O         2.679928         0.978973        -1.943870
 C         1.643829         1.259149        -0.957955
 C         2.661832         1.402449         0.132635
 O         1.937588         0.517651         1.144012
 H        -0.003702        -1.076939         1.242898
 H        -0.662429         0.332277         0.527273
 H        -0.419911        -1.082808        -0.609523
 H         2.784892        -1.701783         0.025862
 H         2.059037        -1.678713        -1.537131
 H         5.150143         1.342597        -0.845642
 H         5.203724        -0.225914         0.069545
 H         5.257945        -0.276788        -1.840867
 H         0.697793         1.875639        -1.210146
 H         3.213942         2.352595         0.383908
