19
Iteration:  4647
 C         0.014459        -0.746745         0.210498
 C         1.266700        -0.067725        -0.048743
 C         2.476873        -0.988276        -0.492703
 C         3.457130         0.339110        -0.826784
 C         4.833964         0.074473        -1.013713
 O         2.751261         1.049276        -1.941602
 C         1.650109         1.227550        -0.994857
 C         2.540381         1.366009         0.178995
 O         1.856084         0.699006         1.146631
 H         0.012115        -1.644228         0.807891
 H        -0.797264        -0.015272         0.636715
 H        -0.398673        -1.116476        -0.771025
 H         2.705309        -1.769327         0.261131
 H         2.324176        -1.446334        -1.485627
 H         5.507716         0.913201        -1.480491
 H         5.206909         0.028554         0.038069
 H         5.129846        -0.858120        -1.538127
 H         0.876030         2.091883        -1.228931
 H         3.185778         2.235865         0.417568
