19
Iteration:  2415charge 0 multiplicity 1
 C        -0.001469        -0.563896        -0.066565
 C         1.343140        -0.061372         0.004284
 C         2.544170        -0.997321        -0.429259
 C         3.421940         0.262883        -0.775676
 C         4.823642         0.127150        -1.194654
 O         2.581524         0.857004        -1.822293
 C         1.673821         1.235683        -0.872400
 C         2.644296         1.401506         0.270372
 O         1.865910         0.697811         1.134289
 H         0.054880        -1.548336         0.596899
 H        -0.817239         0.105425         0.214869
 H        -0.284208        -0.854471        -1.113138
 H         2.812843        -1.571256         0.611186
 H         2.398495        -1.690694        -1.226883
 H         5.072905         1.171078        -1.492087
 H         5.410835        -0.241128        -0.309801
 H         4.997079        -0.573562        -1.954659
 H         0.978726         1.982631        -1.104340
 H         3.164481         2.325003         0.649879
