19
Iteration:  4285charge 0 multiplicity 1
 C        -0.067888        -0.624023         0.055060
 C         1.309293        -0.104447        -0.004240
 C         2.517925        -0.924786        -0.477212
 C         3.423009         0.355789        -0.736853
 C         4.802012         0.287446        -1.034030
 O         2.632411         0.775034        -1.907082
 C         1.670064         1.190612        -0.911553
 C         2.694389         1.377111         0.137982
 O         1.871214         0.633943         1.124449
 H        -0.083118        -1.630087         0.692442
 H        -0.539833         0.219032         0.517781
 H        -0.418968        -0.839919        -0.965496
 H         2.853007        -1.620991         0.274623
 H         2.416420        -1.436297        -1.417523
 H         5.217185         1.100557        -1.551468
 H         5.398757         0.225934        -0.025257
 H         5.065377        -0.690676        -1.475674
 H         1.011782         1.968903        -1.170212
 H         3.176630         2.299210         0.385965
