19
Iteration:  4023
 C        -0.022234        -0.717726         0.236352
 C         1.264424        -0.024470        -0.171788
 C         2.494993        -0.875401        -0.543122
 C         3.393426         0.282907        -0.809084
 C         4.923787         0.148967        -0.917072
 O         2.649703         0.894799        -1.912151
 C         1.609521         1.335174        -0.983020
 C         2.689120         1.359458         0.172203
 O         1.868851         0.622800         1.085272
 H         0.239752        -1.565974         1.049331
 H        -0.758317        -0.049218         0.675097
 H        -0.427473        -1.271882        -0.699519
 H         2.624698        -1.595307         0.315603
 H         2.383817        -1.591160        -1.453632
 H         5.351033         1.006112        -1.571324
 H         5.287701        -0.000811         0.189331
 H         5.140339        -0.807243        -1.478526
 H         0.744993         2.063583        -1.175868
 H         3.223304         2.264769         0.649470
