19
Iteration:  4502
 C        -0.066514        -0.771478         0.196449
 C         1.280158        -0.061053        -0.037918
 C         2.530752        -0.919229        -0.602881
 C         3.405452         0.327498        -0.780798
 C         4.849443         0.122427        -0.951900
 O         2.593510         0.911231        -1.899332
 C         1.669729         1.249111        -0.931245
 C         2.694560         1.360851         0.152759
 O         1.882212         0.775117         1.086217
 H         0.070341        -1.826924         0.585292
 H        -0.718340        -0.296797         0.820201
 H        -0.506536        -0.913376        -0.759410
 H         2.962458        -1.622810         0.125245
 H         2.364762        -1.376340        -1.597625
 H         5.424753         0.859275        -1.401350
 H         5.335956         0.064824         0.054067
 H         5.226492        -0.819751        -1.388858
 H         0.896628         1.867319        -1.291187
 H         3.307563         2.231369         0.420200
