19
Iteration:   647
 C        -0.165461        -0.600552         0.193072
 C         1.255453        -0.114965        -0.102694
 C         2.568565        -0.876113        -0.492941
 C         3.461221         0.333462        -0.830935
 C         4.931134         0.211988        -0.928559
 O         2.645772         0.877024        -1.948036
 C         1.646898         1.246412        -0.994348
 C         2.651655         1.366363         0.179499
 O         1.894390         0.527964         1.146671
 H        -0.095851        -1.357493         0.957013
 H        -0.743288         0.083892         0.706285
 H        -0.691183        -0.983015        -0.782280
 H         2.795657        -1.749101         0.019141
 H         2.344349        -1.305144        -1.556487
 H         5.381285         1.247475        -1.065861
 H         5.238522        -0.183565        -0.022987
 H         5.280441        -0.399205        -1.791383
 H         0.833449         1.889784        -1.329528
 H         3.166005         2.309372         0.500808
