19
Iteration:  3316
 C        -0.038609        -0.674460         0.315118
 C         1.254109        -0.081595        -0.118512
 C         2.455212        -0.872531        -0.575943
 C         3.447249         0.300317        -0.858481
 C         4.943435         0.232746        -0.879184
 O         2.629948         0.883387        -1.906289
 C         1.627803         1.256748        -0.972348
 C         2.690474         1.377617         0.169445
 O         1.870310         0.575427         1.016238
 H        -0.153760        -1.416141         1.228946
 H        -0.758318         0.103894         0.536532
 H        -0.655389        -1.128341        -0.500682
 H         2.805483        -1.860809        -0.004378
 H         2.131786        -1.204707        -1.611581
 H         5.456189         1.150714        -0.761050
 H         5.212029        -0.422588         0.068079
 H         5.424814        -0.429539        -1.671510
 H         0.969015         2.000997        -1.350101
 H         3.350998         2.235828         0.428988
