19
Iteration:   309
 C        -0.002709        -0.649369         0.246895
 C         1.319654        -0.037048        -0.091907
 C         2.446330        -0.946095        -0.535947
 C         3.380453         0.336134        -0.784513
 C         4.872355         0.249328        -0.881651
 O         2.633494         0.859568        -1.965165
 C         1.703303         1.196853        -1.013741
 C         2.624768         1.346361         0.163464
 O         1.860419         0.576208         1.075797
 H         0.193962        -1.417617         1.015338
 H        -0.734789         0.136945         0.599839
 H        -0.423124        -1.123177        -0.670142
 H         3.020646        -1.434395         0.303917
 H         2.361346        -1.608065        -1.447858
 H         5.274038         1.172291        -0.403566
 H         5.407014        -0.671200        -0.448480
 H         5.154431         0.443005        -1.908861
 H         1.051206         2.023351        -1.397634
 H         3.002087         2.382415         0.441685
