19
Iteration:  2269charge 0 multiplicity 1
 C        -0.182651        -0.677177         0.070407
 C         1.293638        -0.078783        -0.040063
 C         2.555182        -0.899017        -0.501851
 C         3.432030         0.283524        -0.809005
 C         4.899396         0.193164        -1.094675
 O         2.607443         0.887565        -1.914859
 C         1.744606         1.254323        -0.916342
 C         2.679390         1.411820         0.218486
 O         1.886820         0.594873         1.230355
 H        -0.227989        -1.632209         0.638646
 H        -0.797286         0.022754         0.751311
 H        -0.541535        -0.564058        -0.941848
 H         2.731981        -1.523678         0.294672
 H         2.346343        -1.569547        -1.470326
 H         5.333280         1.002258        -1.583433
 H         5.405095        -0.213546        -0.272495
 H         5.028384        -0.625022        -1.875978
 H         0.983974         2.073662        -1.250805
 H         3.116247         2.291299         0.635587
