19
Iteration:  2547
 C        -0.023848        -0.688187         0.021705
 C         1.303623        -0.063770        -0.041870
 C         2.555998        -0.837804        -0.410446
 C         3.411321         0.295594        -0.835734
 C         4.812860         0.092553        -1.113716
 O         2.598919         0.847838        -1.888306
 C         1.694552         1.302119        -0.942084
 C         2.689598         1.389090         0.256022
 O         1.829375         0.632454         1.166409
 H        -0.363348        -0.925306         1.122926
 H        -0.663005         0.183707        -0.187171
 H        -0.134806        -1.525482        -0.776523
 H         3.069390        -1.232374         0.530518
 H         2.329508        -1.706990        -1.014758
 H         5.407993         0.915922        -1.624845
 H         5.341598        -0.271594        -0.223466
 H         4.798651        -0.627985        -1.935874
 H         1.079912         2.206439        -1.072021
 H         3.291480         2.258852         0.617625
