19
Iteration:  4726
 C        -0.198899        -0.575635         0.026085
 C         1.256130        -0.136205        -0.031299
 C         2.516659        -1.008882        -0.375312
 C         3.417577         0.290303        -0.789198
 C         4.879033         0.315644        -1.049035
 O         2.664323         0.860055        -1.983864
 C         1.640201         1.330542        -0.950694
 C         2.710877         1.266601         0.203460
 O         1.944680         0.592422         1.233461
 H        -0.139152        -1.508093         0.587645
 H        -0.771505         0.210421         0.545344
 H        -0.664344        -0.735759        -0.987901
 H         3.041167        -1.593931         0.352116
 H         2.508061        -1.554229        -1.338986
 H         5.285723         1.152069        -1.690445
 H         5.517311         0.231529        -0.155959
 H         5.210552        -0.680469        -1.543529
 H         0.884655         2.041482        -1.340399
 H         3.068093         2.239799         0.267853
