19
Iteration:  4453
 C        -0.105859        -0.697833         0.204727
 C         1.279486        -0.146804        -0.069899
 C         2.573298        -1.064599        -0.493759
 C         3.374128         0.343647        -0.855091
 C         4.852328         0.215928        -0.974814
 O         2.705013         0.961998        -1.945117
 C         1.618569         1.283208        -0.899520
 C         2.716782         1.352047         0.089638
 O         1.843670         0.686803         1.143318
 H        -0.237542        -1.577626         0.796534
 H        -0.758210         0.204299         0.668115
 H        -0.583955        -0.914508        -0.820911
 H         2.956484        -1.528132         0.438555
 H         2.374590        -1.788098        -1.307765
 H         5.423923         0.849985        -1.754381
 H         5.545891         0.329513        -0.181630
 H         5.102403        -0.819971        -1.186551
 H         0.817788         2.034298        -1.235125
 H         3.218141         2.241529         0.484680
