19
Iteration:   530
 C        -0.081009        -0.721133         0.008542
 C         1.291122        -0.072049        -0.114775
 C         2.525154        -0.887240        -0.385257
 C         3.451012         0.318798        -0.701879
 C         4.923366         0.128428        -1.160368
 O         2.646804         0.940187        -1.905999
 C         1.632773         1.216411        -0.828895
 C         2.700343         1.325170         0.230229
 O         1.826654         0.697164         1.126558
 H        -0.209484        -1.306829         0.939863
 H        -0.949122        -0.152445         0.173677
 H        -0.312119        -1.444004        -0.887787
 H         2.768130        -1.374178         0.498050
 H         2.348058        -1.630634        -1.282609
 H         5.200424         1.216283        -1.057007
 H         5.564214        -0.457995        -0.521965
 H         5.014372        -0.142848        -2.259100
 H         0.904326         1.966101        -1.175729
 H         3.127690         2.268011         0.567317
