19
Iteration:  4854charge 0 multiplicity 1
 C        -0.094774        -0.576875         0.112084
 C         1.310751        -0.061896        -0.082847
 C         2.440743        -1.004993        -0.470190
 C         3.446205         0.328420        -0.786389
 C         4.935572         0.246088        -0.983911
 O         2.667782         0.916313        -1.910047
 C         1.609134         1.177760        -1.018171
 C         2.630050         1.274529         0.201676
 O         1.936583         0.604782         1.171420
 H        -0.213825        -1.444282         0.734124
 H        -0.749398         0.206266         0.635979
 H        -0.334129        -0.707632        -0.979171
 H         2.582693        -1.530423         0.479388
 H         2.316687        -1.666321        -1.356455
 H         5.315213         1.306577        -1.131590
 H         5.620889        -0.266378        -0.354282
 H         4.988397        -0.133336        -1.981425
 H         0.745661         1.897426        -1.315069
 H         3.073467         2.235430         0.513169
