19
Iteration:  4431
 C        -0.106571        -0.567853         0.119277
 C         1.303075        -0.104696        -0.006045
 C         2.539575        -0.885687        -0.485985
 C         3.432790         0.269350        -0.789130
 C         4.959131         0.246850        -1.096718
 O         2.614782         0.847469        -1.915900
 C         1.679699         1.104316        -0.967175
 C         2.646717         1.370140         0.209878
 O         1.824133         0.638190         1.170636
 H        -0.229071        -1.261786         0.925099
 H        -0.837806         0.361311         0.260333
 H        -0.336797        -1.196243        -0.799173
 H         2.844106        -1.626427         0.273200
 H         2.294915        -1.320805        -1.477434
 H         5.216664         1.208265        -1.683008
 H         5.586207         0.298921        -0.209528
 H         5.413020        -0.609722        -1.610995
 H         0.835805         1.818377        -1.247250
 H         3.078877         2.199432         0.777603
