19
Iteration:  1181
 C        -0.062056        -0.655519         0.101114
 C         1.305372        -0.035035        -0.057567
 C         2.506232        -0.929524        -0.405000
 C         3.438179         0.314606        -0.761058
 C         4.899824         0.137653        -1.066518
 O         2.654278         0.914016        -1.907158
 C         1.610874         1.153055        -0.987520
 C         2.629573         1.348615         0.100345
 O         1.897969         0.688036         1.200623
 H        -0.010505        -1.557462         0.756427
 H        -0.764201         0.021131         0.504983
 H        -0.464233        -0.844622        -0.933712
 H         2.721428        -1.575920         0.501444
 H         2.408380        -1.552129        -1.280162
 H         5.205370         1.095514        -1.653990
 H         5.401119         0.167983        -0.121854
 H         5.201265        -0.829709        -1.611120
 H         0.870489         1.967916        -1.318274
 H         3.004232         2.305617         0.468934
