19
Iteration:  2345charge 0 multiplicity 1
 C        -0.026667        -0.612074         0.226127
 C         1.267175        -0.076227        -0.112566
 C         2.451591        -0.928535        -0.619667
 C         3.378280         0.293457        -0.782827
 C         4.872771         0.139882        -0.924935
 O         2.633816         0.966583        -1.928994
 C         1.682861         1.235622        -0.942348
 C         2.680307         1.335679         0.188816
 O         1.908063         0.593195         1.117580
 H         0.229370        -1.086251         1.230898
 H        -0.844340         0.213612         0.215996
 H        -0.283177        -1.412699        -0.496905
 H         2.840355        -1.618861         0.019725
 H         2.297534        -1.369726        -1.675207
 H         5.358774         1.105738        -1.052540
 H         5.268296        -0.428238        -0.076731
 H         5.225856        -0.505326        -1.808743
 H         0.866033         2.023135        -1.145881
 H         3.037565         2.305055         0.470353
