19
Iteration:  3875charge 0 multiplicity 1
 C        -0.084040        -0.694036         0.148476
 C         1.273292        -0.120891        -0.097349
 C         2.483013        -0.923483        -0.440406
 C         3.424893         0.349098        -0.765088
 C         4.871617         0.113162        -1.006523
 O         2.678337         1.013328        -1.925677
 C         1.699555         1.281038        -0.954072
 C         2.676992         1.343155         0.164533
 O         1.866130         0.607055         1.110819
 H         0.078274        -1.496275         0.907728
 H        -0.894936         0.116173         0.515373
 H        -0.480789        -1.161093        -0.858078
 H         2.902203        -1.636977         0.301749
 H         2.409298        -1.591445        -1.316384
 H         5.212717         0.995573        -1.663077
 H         5.445570         0.144037         0.003787
 H         4.739305        -0.851823        -1.632963
 H         0.760878         1.935839        -1.261555
 H         3.317889         2.284231         0.536816
