19
Iteration:  1824
 C        -0.101394        -0.651477         0.282334
 C         1.243767        -0.048258        -0.090694
 C         2.495201        -0.892664        -0.546271
 C         3.405086         0.324362        -0.863236
 C         4.898939         0.219042        -0.953167
 O         2.680599         0.837843        -1.985477
 C         1.718189         1.241882        -0.980364
 C         2.621203         1.365417         0.191089
 O         1.896650         0.562075         1.110227
 H         0.016744        -1.255104         1.212675
 H        -0.853876         0.081761         0.684695
 H        -0.504795        -1.129498        -0.539093
 H         2.738060        -1.573905         0.300521
 H         2.298508        -1.511808        -1.522450
 H         5.276705         1.155051        -0.697881
 H         5.196353        -0.433156        -0.168501
 H         5.546577        -0.077662        -1.827174
 H         1.015756         2.117680        -1.312690
 H         3.006595         2.358924         0.479646
