19
Iteration:  2717
 C        -0.104222        -0.603890         0.034974
 C         1.332985        -0.037890        -0.015148
 C         2.474810        -0.990781        -0.379691
 C         3.421902         0.274875        -0.766545
 C         4.836738         0.201287        -1.121046
 O         2.674562         0.804331        -1.898355
 C         1.701130         1.228040        -0.936427
 C         2.688274         1.378122         0.138838
 O         1.823394         0.723778         1.198437
 H         0.036112        -1.226786         0.953147
 H        -0.962809         0.114085         0.078684
 H        -0.109207        -1.243175        -0.828634
 H         3.018621        -1.608410         0.423278
 H         2.232427        -1.674247        -1.236419
 H         5.138417         1.105800        -1.648790
 H         5.529075        -0.035254        -0.257310
 H         5.053721        -0.566530        -1.789093
 H         0.887545         1.807436        -1.283128
 H         3.329785         2.317903         0.424638
