19
Iteration:  1077
 C        -0.077692        -0.619761         0.104524
 C         1.315939        -0.076852        -0.163795
 C         2.538195        -0.904880        -0.422495
 C         3.419753         0.271883        -0.788179
 C         4.911373         0.217228        -1.126525
 O         2.632767         0.828336        -1.897946
 C         1.676272         1.178947        -0.901122
 C         2.630404         1.367034         0.189344
 O         1.851345         0.689407         1.185157
 H        -0.245229        -1.071706         1.122884
 H        -0.819149         0.257582         0.117727
 H        -0.443161        -1.361314        -0.584336
 H         2.947640        -1.489890         0.439793
 H         2.468488        -1.520343        -1.299589
 H         5.412578         1.144186        -0.905970
 H         5.208512        -0.530474        -0.185657
 H         5.113653        -0.173525        -2.134476
 H         0.830417         1.789139        -1.284351
 H         3.153446         2.304330         0.507793
