19
Iteration:  1686charge 0 multiplicity 1
 C        -0.028059        -0.586967         0.054208
 C         1.317270        -0.038418        -0.063720
 C         2.531704        -0.920837        -0.413893
 C         3.369187         0.285445        -0.847376
 C         4.887497         0.261209        -1.055809
 O         2.647428         0.767259        -1.862906
 C         1.605314         1.213775        -0.900024
 C         2.673701         1.328070         0.170508
 O         1.870625         0.651959         1.120364
 H        -0.099259        -1.231989         0.943470
 H        -0.766700         0.205188         0.386345
 H        -0.330561        -1.150174        -0.841291
 H         2.804659        -1.586277         0.528277
 H         2.373522        -1.433506        -1.319431
 H         5.175787         1.248340        -1.303359
 H         5.276159        -0.158866        -0.059592
 H         5.248032        -0.354597        -1.853324
 H         0.833358         1.851505        -1.348153
 H         3.260145         2.227255         0.511805
