19
Iteration:  2372charge 0 multiplicity 1
 C        -0.058199        -0.686499         0.096481
 C         1.275313        -0.036048        -0.050047
 C         2.515576        -0.903240        -0.492605
 C         3.396537         0.304288        -0.796663
 C         4.845439         0.077950        -1.148591
 O         2.662694         0.955469        -1.874576
 C         1.714842         1.295596        -0.914022
 C         2.703115         1.367395         0.264805
 O         1.792318         0.629954         1.160797
 H        -0.081578        -1.229571         1.037178
 H        -0.789113         0.007535        -0.151251
 H        -0.027710        -1.475806        -0.680482
 H         3.017762        -1.502857         0.418097
 H         2.354770        -1.496879        -1.361354
 H         5.453923         0.960570        -1.440095
 H         5.453935        -0.399113        -0.344168
 H         4.880579        -0.687613        -1.863181
 H         0.927351         1.925932        -1.215177
 H         3.156821         2.340173         0.604354
