19
Iteration:  3777
 C        -0.067784        -0.612807         0.093569
 C         1.359467        -0.075352        -0.070673
 C         2.565217        -0.931596        -0.471091
 C         3.407754         0.277324        -0.703253
 C         4.925828         0.156102        -1.150115
 O         2.614334         0.854075        -1.894856
 C         1.724618         1.256152        -0.916762
 C         2.602819         1.364239         0.258064
 O         1.795011         0.663950         1.149703
 H        -0.124664        -1.434961         0.778178
 H        -0.853146         0.168780         0.242350
 H        -0.370898        -1.046004        -0.917902
 H         2.969818        -1.717247         0.132961
 H         2.438947        -1.316717        -1.447059
 H         5.277191         1.131243        -0.937484
 H         5.565363        -0.514974        -0.605847
 H         4.689033        -0.188781        -2.127602
 H         0.880504         1.969053        -1.206821
 H         3.106430         2.287617         0.633335
