19
Iteration:  2062
 C        -0.040097        -0.699708        -0.058210
 C         1.293763        -0.121063         0.001712
 C         2.581357        -0.913903        -0.404467
 C         3.441431         0.330469        -0.752849
 C         4.758507         0.062409        -1.268695
 O         2.649361         0.940875        -1.845956
 C         1.754266         1.249922        -0.869646
 C         2.660754         1.413608         0.273295
 O         1.820938         0.709500         1.253547
 H        -0.099273        -1.647990         0.488587
 H        -0.883414        -0.040420         0.158496
 H        -0.151339        -0.949162        -1.102524
 H         2.800718        -1.580184         0.343467
 H         2.454047        -1.529230        -1.363368
 H         5.189516         0.981834        -1.681840
 H         5.275012        -0.447912        -0.455278
 H         4.773253        -0.678319        -2.144807
 H         1.015982         2.045250        -1.235215
 H         3.046094         2.421774         0.525258
