19
Iteration:  1071
 C        -0.098262        -0.608914         0.108109
 C         1.258891        -0.148011        -0.101443
 C         2.570044        -0.916749        -0.367312
 C         3.402663         0.350910        -0.828699
 C         4.862846         0.196761        -1.126492
 O         2.664838         0.831431        -1.879785
 C         1.713969         1.190471        -0.960982
 C         2.617509         1.365486         0.207093
 O         1.872622         0.683361         1.156189
 H        -0.270384        -1.053251         1.058075
 H        -0.851144         0.141302        -0.023614
 H        -0.352749        -1.318464        -0.738454
 H         2.990807        -1.388434         0.498625
 H         2.385754        -1.581918        -1.276395
 H         5.414397         1.169995        -0.935713
 H         5.205405        -0.447805        -0.460226
 H         5.116716        -0.219936        -2.105690
 H         0.955348         1.951929        -1.109329
 H         3.217947         2.184862         0.599036
