19
Iteration:  2375charge 0 multiplicity 1
 C        -0.066906        -0.685150         0.081254
 C         1.276397        -0.027236        -0.021693
 C         2.511021        -0.882478        -0.464022
 C         3.399870         0.310636        -0.791680
 C         4.839459         0.073435        -1.161593
 O         2.662929         0.956777        -1.882278
 C         1.737071         1.266981        -0.910642
 C         2.702024         1.346211         0.256247
 O         1.791248         0.627352         1.158161
 H        -0.123165        -1.246139         0.956990
 H        -0.909738         0.007445        -0.116067
 H         0.023336        -1.499174        -0.670727
 H         3.047110        -1.379137         0.343904
 H         2.427947        -1.512319        -1.380750
 H         5.475888         0.972263        -1.423334
 H         5.461126        -0.314418        -0.365033
 H         4.861598        -0.741293        -1.948868
 H         0.961995         2.056801        -1.216710
 H         3.058671         2.321950         0.648851
