19
Iteration:  4261
 C        -0.126305        -0.566424         0.011903
 C         1.274948        -0.070822        -0.051308
 C         2.572161        -1.000632        -0.311911
 C         3.452522         0.276375        -0.824154
 C         4.887697         0.254182        -1.078141
 O         2.595896         0.894144        -1.932545
 C         1.596536         1.247353        -1.016966
 C         2.621482         1.330360         0.188144
 O         1.949375         0.584200         1.225399
 H        -0.109463        -1.439434         0.782766
 H        -0.749791         0.293212         0.191363
 H        -0.284147        -1.058520        -0.974847
 H         2.953987        -1.430021         0.594795
 H         2.519758        -1.806748        -1.077004
 H         5.240969         1.121775        -1.743059
 H         5.447519         0.490827        -0.159014
 H         5.364558        -0.679148        -1.396026
 H         0.702504         1.805398        -1.485752
 H         3.181566         2.237579         0.663395
