19
Iteration:  4005charge 0 multiplicity 1
 C        -0.023259        -0.678627         0.259700
 C         1.289236        -0.101356         0.008546
 C         2.390199        -0.934459        -0.538643
 C         3.379714         0.314027        -0.759302
 C         4.844243         0.211875        -0.921220
 O         2.753125         0.957604        -1.989987
 C         1.701580         1.250431        -1.047581
 C         2.623936         1.352221         0.162257
 O         1.886030         0.589708         1.080535
 H        -0.013000        -1.524228         0.885515
 H        -0.724097         0.007751         0.758399
 H        -0.558124        -1.181545        -0.540555
 H         2.815945        -1.671800         0.192357
 H         2.241801        -1.377225        -1.545571
 H         5.174001         1.184498        -1.117393
 H         5.343545        -0.183398        -0.016491
 H         5.102895        -0.436392        -1.733501
 H         1.066538         2.033527        -1.535988
 H         3.202260         2.259653         0.327509
