19
Iteration:  2423charge 0 multiplicity 1
 C        -0.019769        -0.570404        -0.031187
 C         1.356890        -0.024560         0.011463
 C         2.582304        -0.939431        -0.415813
 C         3.398347         0.244094        -0.785295
 C         4.813172         0.153808        -1.145490
 O         2.620088         0.813717        -1.917756
 C         1.634931         1.224474        -0.854086
 C         2.655876         1.388133         0.239884
 O         1.847404         0.660311         1.173782
 H        -0.148087        -1.618819         0.476583
 H        -0.641456         0.271838         0.425443
 H        -0.165440        -0.712120        -1.096593
 H         2.759194        -1.666303         0.337473
 H         2.201590        -1.432956        -1.318480
 H         5.209959         1.119556        -1.355209
 H         5.507793        -0.117610        -0.286817
 H         5.035050        -0.549842        -1.995072
 H         0.859479         1.985280        -1.037806
 H         3.183450         2.256252         0.617341
