19
Iteration:  1004
 C        -0.047789        -0.685677         0.122560
 C         1.329083        -0.073519        -0.054145
 C         2.506791        -0.881987        -0.448032
 C         3.408695         0.290026        -0.716895
 C         4.903314         0.111400        -0.969254
 O         2.575333         0.911917        -2.009772
 C         1.681786         1.256942        -1.014695
 C         2.677355         1.348234         0.181042
 O         1.860582         0.665538         1.168921
 H         0.069666        -1.552382         0.763786
 H        -0.864944        -0.147141         0.706821
 H        -0.485776        -1.051963        -0.864711
 H         2.721962        -1.584365         0.330145
 H         2.329865        -1.359853        -1.499996
 H         5.090955         1.166098        -1.376839
 H         5.435536         0.035425        -0.114711
 H         5.133874        -0.706744        -1.682717
 H         1.118508         2.128470        -1.346593
 H         3.306469         2.285040         0.422986
