19
Iteration:   314
 C         0.006420        -0.634540         0.221523
 C         1.283346        -0.075503        -0.108786
 C         2.533587        -0.971035        -0.521735
 C         3.373050         0.279424        -0.797255
 C         4.841460         0.264353        -0.882606
 O         2.649643         0.851374        -1.949489
 C         1.652867         1.244059        -1.054989
 C         2.620188         1.363033         0.205301
 O         1.882983         0.612826         1.091032
 H         0.220780        -1.366735         0.997611
 H        -0.653715         0.150756         0.531181
 H        -0.327922        -1.121919        -0.703568
 H         2.854275        -1.504464         0.368486
 H         2.288246        -1.572861        -1.418054
 H         5.329743         1.164595        -0.509768
 H         5.234930        -0.655725        -0.544983
 H         5.104388         0.425788        -1.964501
 H         0.942658         2.021505        -1.324049
 H         3.094976         2.225679         0.651524
