19
Iteration:  1184charge 0 multiplicity 1
 C        -0.063044        -0.663931         0.083300
 C         1.304623        -0.062602        -0.046338
 C         2.481596        -0.930363        -0.370972
 C         3.450759         0.313233        -0.768000
 C         4.892237         0.149741        -1.079595
 O         2.649551         0.919668        -1.901372
 C         1.605181         1.161876        -0.996017
 C         2.652419         1.379645         0.105229
 O         1.887650         0.668852         1.182336
 H        -0.002953        -1.537761         0.807078
 H        -0.778450         0.090909         0.485414
 H        -0.425792        -0.819083        -0.913295
 H         2.804530        -1.601422         0.565209
 H         2.356556        -1.559731        -1.255059
 H         5.150826         1.026207        -1.584092
 H         5.513477         0.120581        -0.179542
 H         5.210627        -0.754793        -1.571732
 H         0.925836         1.982487        -1.332319
 H         3.107913         2.301898         0.444066
