19
Iteration:   394charge 0 multiplicity 1
 C        -0.021746        -0.724542         0.001856
 C         1.224143        -0.034248        -0.012432
 C         2.606752        -0.910681        -0.405625
 C         3.380202         0.330379        -0.731342
 C         4.886994         0.162667        -1.114153
 O         2.649352         0.891597        -1.925419
 C         1.635968         1.304442        -0.944185
 C         2.655007         1.312283         0.215423
 O         1.820490         0.655442         1.157112
 H        -0.096560        -1.554304         0.727964
 H        -0.886122        -0.000157         0.319637
 H        -0.037785        -1.048327        -1.017974
 H         2.911464        -1.579617         0.515073
 H         2.580043        -1.546989        -1.267078
 H         5.191088         1.051821        -1.657550
 H         5.702436         0.166432        -0.257725
 H         5.008415        -0.778534        -1.638751
 H         0.754962         1.927843        -1.004348
 H         3.284928         2.164934         0.552215
