19
Iteration:   397charge 0 multiplicity 1
 C        -0.033219        -0.714448         0.026336
 C         1.238391        -0.031456        -0.002518
 C         2.573042        -0.906564        -0.397291
 C         3.389264         0.316625        -0.757755
 C         4.926417         0.157210        -1.099920
 O         2.639429         0.901783        -1.924358
 C         1.635076         1.298761        -0.966265
 C         2.658864         1.335382         0.204392
 O         1.814522         0.637893         1.183340
 H        -0.056855        -1.600388         0.688534
 H        -0.868131        -0.104757         0.274800
 H        -0.112242        -1.089924        -1.080096
 H         2.904983        -1.512771         0.384279
 H         2.562974        -1.642053        -1.304970
 H         5.197393         1.083983        -1.657597
 H         5.665015         0.212643        -0.303888
 H         5.096763        -0.788648        -1.626922
 H         0.760311         1.997032        -1.149302
 H         3.270426         2.183627         0.643993
