19
Iteration:  3071charge 0 multiplicity 1
 C        -0.082730        -0.530470        -0.064525
 C         1.321882        -0.054219        -0.092243
 C         2.675532        -0.947767        -0.314512
 C         3.366462         0.286352        -0.801719
 C         4.885390         0.174125        -1.115236
 O         2.498331         0.783446        -1.936469
 C         1.670366         1.183289        -0.901165
 C         2.704836         1.369018         0.283724
 O         1.878803         0.690732         1.188782
 H        -0.271326        -1.366809         0.567690
 H        -0.862723         0.298796         0.155218
 H        -0.402857        -0.940404        -1.060050
 H         2.909061        -1.342678         0.653405
 H         2.482291        -1.823251        -0.970470
 H         5.188768         1.064201        -1.725934
 H         5.360634         0.221506        -0.193676
 H         5.152274        -0.661736        -1.707983
 H         0.872676         1.927786        -1.259584
 H         3.377250         2.105258         0.666877
