19
Iteration:  4827
 C        -0.101493        -0.693618         0.163640
 C         1.329029        -0.046619        -0.060156
 C         2.600807        -0.873081        -0.516352
 C         3.440273         0.313483        -0.880601
 C         4.845744         0.125681        -0.959253
 O         2.610066         0.897986        -1.904856
 C         1.660007         1.224060        -0.963077
 C         2.707718         1.348712         0.239930
 O         1.806296         0.663144         1.084574
 H        -0.114150        -1.243440         1.152102
 H        -0.860213         0.023855         0.348038
 H        -0.381971        -1.255572        -0.705078
 H         2.836695        -1.693701         0.187160
 H         2.287075        -1.234304        -1.494608
 H         5.270742         1.077077        -0.647507
 H         5.383249        -0.700177        -0.393684
 H         5.240761         0.009356        -2.034100
 H         0.945411         1.923793        -1.259391
 H         3.286606         2.169229         0.769706
