19
Iteration:  2747
 C        -0.142664        -0.555337        -0.043126
 C         1.377083        -0.101979         0.020284
 C         2.553778        -0.931601        -0.360291
 C         3.454256         0.304872        -0.830071
 C         4.866439         0.242393        -1.091321
 O         2.563148         0.717696        -1.894680
 C         1.628746         1.255883        -0.923064
 C         2.697875         1.370814         0.175846
 O         1.897450         0.693543         1.184106
 H        -0.463820        -0.915105         0.939419
 H        -0.753063         0.398082        -0.407300
 H        -0.231126        -1.309044        -0.879420
 H         2.991282        -1.247128         0.529462
 H         2.477334        -1.927412        -0.856996
 H         5.325643         1.188621        -1.162721
 H         5.378534        -0.307165        -0.313458
 H         4.977770        -0.465993        -2.034253
 H         0.684709         1.734086        -1.293278
 H         3.359734         2.084977         0.563867
