19
Iteration:  2544
 C        -0.033467        -0.695194         0.017958
 C         1.317304        -0.057383        -0.038459
 C         2.560460        -0.851263        -0.419612
 C         3.404586         0.304641        -0.865938
 C         4.774414         0.075312        -1.098733
 O         2.614942         0.850408        -1.895970
 C         1.684239         1.305757        -0.947482
 C         2.704758         1.410816         0.259910
 O         1.827427         0.621817         1.172786
 H        -0.257918        -0.936330         1.068975
 H        -0.694208         0.118501        -0.122976
 H        -0.127951        -1.507894        -0.647911
 H         3.067683        -1.166074         0.535805
 H         2.309054        -1.620340        -1.055919
 H         5.358019         0.934453        -1.500834
 H         5.357075        -0.212365        -0.145976
 H         4.816683        -0.636328        -1.888799
 H         1.092258         2.144175        -1.073514
 H         3.392325         2.248625         0.600596
