19
Iteration:  4407charge 0 multiplicity 1
 C        -0.056084        -0.588318         0.034097
 C         1.326368        -0.093567        -0.099241
 C         2.547245        -0.968868        -0.348201
 C         3.313836         0.302036        -0.732231
 C         4.790559         0.318881        -1.084761
 O         2.661601         0.773257        -1.920803
 C         1.652904         1.295590        -0.984332
 C         2.699589         1.351095         0.204269
 O         1.921503         0.581634         1.130343
 H        -0.080404        -1.078717         1.053701
 H        -0.771424         0.307636         0.100962
 H        -0.271542        -1.451922        -0.632813
 H         2.742685        -1.500411         0.583593
 H         2.482205        -1.564899        -1.231030
 H         5.168712         1.325166        -1.300516
 H         5.407596        -0.173914        -0.289622
 H         4.999976        -0.346382        -1.953451
 H         0.855637         2.052681        -1.147146
 H         3.188583         2.180143         0.677060
