19
Iteration:  3570charge 0 multiplicity 1
 C        -0.067097        -0.713095         0.001228
 C         1.273561        -0.014307        -0.163790
 C         2.556118        -0.948281        -0.375528
 C         3.467855         0.290503        -0.742027
 C         4.860693         0.110184        -1.230141
 O         2.666762         0.904828        -1.843666
 C         1.636310         1.306228        -0.849354
 C         2.656202         1.371395         0.319610
 O         1.838363         0.679225         1.150766
 H         0.103113        -1.467511         0.707994
 H        -0.896511        -0.065800         0.237900
 H        -0.357435        -1.189225        -0.969473
 H         2.775168        -1.531388         0.497524
 H         2.615645        -1.667454        -1.223126
 H         5.537182         1.066784        -1.123744
 H         5.205189        -0.705088        -0.566299
 H         4.701278        -0.210298        -2.292328
 H         0.911549         2.088081        -1.274667
 H         3.063089         2.346386         0.671090
