19
Iteration:  4345
 C        -0.024834        -0.769435         0.232558
 C         1.307401        -0.084303        -0.098072
 C         2.570327        -0.913859        -0.516875
 C         3.381875         0.303811        -0.684455
 C         4.783690         0.098705        -0.960906
 O         2.679587         0.892960        -1.927869
 C         1.668554         1.280770        -1.041599
 C         2.594063         1.473035         0.140535
 O         1.897603         0.703715         1.067461
 H         0.109466        -1.531998         0.907975
 H        -0.844519        -0.110522         0.696587
 H        -0.508109        -1.135547        -0.702401
 H         2.999797        -1.464618         0.379966
 H         2.690389        -1.591854        -1.431036
 H         5.402081         1.071534        -0.702669
 H         5.114922        -0.763942        -0.443367
 H         4.738214         0.048163        -2.063899
 H         0.823307         1.943770        -1.506823
 H         3.211017         2.164794         0.864517
