19
Iteration:    17charge 0 multiplicity 1
 C        -0.077255        -0.669018        -0.026993
 C         1.361802        -0.152389        -0.093769
 C         2.541258        -0.971433        -0.441920
 C         3.377293         0.320268        -0.788710
 C         4.804749         0.290073        -1.107857
 O         2.718054         0.937548        -1.905239
 C         1.702806         1.299141        -0.839450
 C         2.792696         1.369924         0.172389
 O         1.693804         0.546999         1.263263
 H        -0.133711        -1.372094         0.819927
 H        -0.768972         0.196424         0.254981
 H        -0.662658        -1.098634        -0.923253
 H         2.947228        -1.686593         0.288845
 H         2.384046        -1.681614        -1.304867
 H         5.250463        -0.614984        -0.622373
 H         4.942344         0.006995        -2.228170
 H         5.338245         1.215051        -0.788214
 H         0.936836         2.055201        -1.106843
 H         3.478489         2.224000         0.494968
