19
Iteration:  4916
 C        -0.085039        -0.687312         0.046566
 C         1.300818        -0.099195        -0.037877
 C         2.456338        -0.931303        -0.494359
 C         3.388393         0.315840        -0.816885
 C         4.885810         0.190472        -1.000777
 O         2.674783         0.910054        -1.901954
 C         1.685434         1.266229        -0.852841
 C         2.710345         1.400205         0.151567
 O         1.909427         0.594679         1.156158
 H        -0.196938        -1.711377         0.453602
 H        -0.868659        -0.046918         0.473122
 H        -0.501506        -0.795973        -0.940290
 H         2.632958        -1.609269         0.376634
 H         2.213559        -1.589006        -1.341006
 H         5.083991         0.919897        -1.862107
 H         5.464639         0.488557        -0.081709
 H         5.144808        -0.835357        -1.307444
 H         0.907869         2.010789        -1.219345
 H         3.017253         2.468888         0.531279
