19
Iteration:  1837charge 0 multiplicity 1
 C        -0.144937        -0.634887         0.168930
 C         1.289848        -0.081623        -0.145219
 C         2.489870        -0.934909        -0.504187
 C         3.415345         0.256150        -0.806601
 C         4.930094         0.224091        -0.986936
 O         2.692292         0.861736        -1.913401
 C         1.565038         1.251330        -0.941708
 C         2.644227         1.400506         0.177523
 O         1.968732         0.640273         1.142190
 H         0.047987        -1.305708         1.039550
 H        -0.814502         0.232449         0.398293
 H        -0.619383        -1.272520        -0.525532
 H         2.854529        -1.658740         0.350789
 H         2.345121        -1.490895        -1.405366
 H         5.362430         1.170025        -0.826042
 H         5.438925        -0.525208        -0.303464
 H         4.987189        -0.074993        -2.063494
 H         0.630047         1.751238        -1.410741
 H         3.264898         2.211330         0.632447
