19
Iteration:  4272
 C        -0.076963        -0.569618         0.037147
 C         1.343528        -0.053447        -0.073044
 C         2.525263        -0.897344        -0.369224
 C         3.338320         0.291923        -0.742873
 C         4.878025         0.261228        -1.006998
 O         2.644590         0.852650        -1.980672
 C         1.628249         1.145175        -0.951348
 C         2.658016         1.351380         0.199630
 O         1.969017         0.572186         1.156114
 H        -0.295175        -1.479938         0.721602
 H        -0.911749         0.048020         0.304312
 H        -0.358865        -0.886692        -0.998959
 H         2.843022        -1.329973         0.554537
 H         2.410611        -1.615305        -1.198489
 H         4.843842         1.059359        -1.788074
 H         5.538222         0.475663        -0.151506
 H         5.077819        -0.627076        -1.602362
 H         0.701382         1.721760        -1.273171
 H         3.150138         2.316560         0.598519
