19
Iteration:    44charge 0 multiplicity 1
 C        -0.084773        -0.629807        -0.059052
 C         1.290596        -0.066431        -0.081735
 C         2.510105        -0.887576        -0.412814
 C         3.453818         0.294371        -0.783249
 C         5.015779         0.246150        -1.178603
 O         2.599496         0.877520        -1.818083
 C         1.611433         1.260013        -0.882228
 C         2.617575         1.361782         0.306893
 O         1.854891         0.572948         1.173072
 H        -0.120938        -1.427500         0.710470
 H        -0.981219        -0.030289        -0.007568
 H        -0.322619        -1.134712        -1.082039
 H         2.875397        -1.543919         0.399638
 H         2.344194        -1.697159        -1.180623
 H         5.379164        -0.811910        -1.120546
 H         5.126614         0.433979        -2.229364
 H         5.665200         0.921779        -0.557315
 H         0.871988         1.947662        -1.277319
 H         3.257797         2.031259         0.854566
