19
Iteration:  2104charge 0 multiplicity 1
 C        -0.033131        -0.659389         0.099720
 C         1.344529        -0.034488        -0.075320
 C         2.515716        -0.945244        -0.476302
 C         3.378394         0.300260        -0.798029
 C         4.798669         0.156122        -1.018597
 O         2.599947         0.984068        -1.957945
 C         1.668125         1.288867        -0.899135
 C         2.729754         1.257233         0.186741
 O         1.875210         0.610163         1.138829
 H         0.019075        -1.579167         0.635386
 H        -0.644357        -0.048503         0.749441
 H        -0.524996        -0.740020        -0.922432
 H         2.987265        -1.563035         0.348337
 H         2.305635        -1.646792        -1.443223
 H         5.363151         0.998998        -1.514715
 H         5.200796        -0.069530        -0.050216
 H         5.058820        -0.754262        -1.589954
 H         0.978700         2.178589        -0.869342
 H         3.170471         2.194553         0.621057
