19
Iteration:   707charge 0 multiplicity 1
 C        -0.067849        -0.729179         0.040001
 C         1.262605        -0.002799        -0.072779
 C         2.558550        -0.822771        -0.396254
 C         3.410035         0.305186        -0.786684
 C         4.875787         0.154604        -1.148371
 O         2.672670         0.844685        -1.913378
 C         1.687726         1.295581        -0.882098
 C         2.687796         1.291902         0.253205
 O         1.809330         0.683381         1.179255
 H        -0.100883        -1.614049         0.675316
 H        -1.038704        -0.186140        -0.271216
 H         0.092762        -1.271351        -0.823129
 H         2.658387        -1.308752         0.669316
 H         2.352477        -1.453211        -1.187293
 H         5.324438         1.102658        -1.276094
 H         5.539874        -0.631322        -0.569745
 H         4.708021        -0.240084        -2.150195
 H         0.853476         1.993515        -1.006253
 H         3.266016         2.090709         0.698190
