19
Iteration:  1445charge 0 multiplicity 1
 C         0.003626        -0.692097         0.239019
 C         1.316887        -0.152072        -0.101403
 C         2.501554        -0.961372        -0.442410
 C         3.323686         0.342120        -0.848213
 C         4.885779         0.099110        -0.880302
 O         2.720245         0.918310        -2.056758
 C         1.589231         1.289993        -0.993916
 C         2.627440         1.415577         0.118572
 O         1.897559         0.721238         1.132929
 H         0.091225        -1.408990         1.103710
 H        -0.803210         0.011462         0.600270
 H        -0.587949        -1.279898        -0.425558
 H         2.831056        -1.587792         0.475733
 H         2.504231        -1.559285        -1.262873
 H         5.275540         1.095142        -0.709480
 H         5.237970        -0.694226        -0.125946
 H         5.118473        -0.186876        -1.952194
 H         0.646590         1.839673        -1.386541
 H         3.169672         2.285651         0.448205
