19
Iteration:  3198
 C        -0.088027        -0.616906         0.113301
 C         1.261137        -0.045852        -0.110799
 C         2.513160        -0.908982        -0.459234
 C         3.381492         0.264326        -0.869657
 C         4.939780         0.245667        -0.944713
 O         2.583058         0.818929        -1.954906
 C         1.654640         1.225581        -0.949211
 C         2.755497         1.330619         0.163299
 O         1.902193         0.623877         1.191983
 H        -0.224295        -1.471601         0.770490
 H        -0.679731         0.162527         0.536159
 H        -0.603699        -0.804895        -0.839394
 H         2.846535        -1.441230         0.444229
 H         2.243856        -1.525355        -1.274942
 H         5.208155         1.249243        -1.243308
 H         5.465861        -0.079568        -0.024996
 H         5.222836        -0.466861        -1.701613
 H         0.894874         1.924036        -1.310746
 H         3.193781         2.266037         0.623220
