19
Iteration:   858charge 0 multiplicity 1
 C        -0.051040        -0.681479         0.032642
 C         1.300344        -0.122433        -0.060263
 C         2.564144        -0.900174        -0.356826
 C         3.463169         0.350894        -0.710794
 C         4.861463         0.119040        -1.160937
 O         2.676695         0.943533        -1.904441
 C         1.676954         1.210625        -0.924401
 C         2.620232         1.373651         0.193619
 O         1.814090         0.679105         1.143182
 H        -0.084500        -1.196201         1.063245
 H        -0.791706         0.155584         0.028456
 H        -0.188181        -1.261685        -0.894758
 H         2.782454        -1.687020         0.490490
 H         2.256475        -1.397553        -1.248101
 H         5.436254         0.975344        -1.242198
 H         5.178527        -0.656053        -0.331018
 H         4.695304        -0.402745        -2.084239
 H         0.859995         1.894970        -1.183730
 H         3.126129         2.253006         0.519762
