19
Iteration:  4184
 C        -0.067484        -0.785259         0.274402
 C         1.305061        -0.036700        -0.121944
 C         2.542937        -0.880058        -0.467834
 C         3.416537         0.308651        -0.833838
 C         4.870245         0.157647        -0.898802
 O         2.651078         0.985683        -1.980089
 C         1.669124         1.237872        -1.057254
 C         2.664280         1.287261         0.076470
 O         1.791602         0.703350         1.160869
 H         0.154046        -1.542573         1.120363
 H        -0.851818        -0.043749         0.568829
 H        -0.380152        -1.308100        -0.681655
 H         2.951470        -1.391700         0.388233
 H         2.494011        -1.543005        -1.353644
 H         5.607592         1.030507        -0.934626
 H         5.179100        -0.530997        -0.157757
 H         5.142218        -0.432616        -1.783623
 H         0.803075         1.994840        -1.171360
 H         3.346703         2.114544         0.541768
