19
Iteration:    59charge 0 multiplicity 1
 C        -0.089799        -0.712710        -0.082576
 C         1.290048        -0.042692        -0.052097
 C         2.537141        -0.929854        -0.454134
 C         3.418880         0.385478        -0.741615
 C         4.897681         0.184266        -1.122200
 O         2.609833         0.879944        -1.909789
 C         1.684199         1.247447        -0.853510
 C         2.691903         1.387940         0.264847
 O         1.857706         0.550382         1.220038
 H        -0.224097        -1.418088         0.716209
 H        -0.701079         0.216269         0.184702
 H        -0.282762        -1.106268        -1.006549
 H         2.707179        -1.524542         0.460770
 H         2.608858        -1.439576        -1.377293
 H         5.202883        -0.831517        -1.144439
 H         5.085106         0.682540        -2.158746
 H         5.469912         0.705128        -0.412383
 H         0.871415         1.929336        -1.133679
 H         2.964462         2.494237         0.501582
