19
Iteration:   167charge 0 multiplicity 1
 C        -0.133282        -0.679003         0.147501
 C         1.248193        -0.069063        -0.064744
 C         2.555595        -0.919981        -0.502827
 C         3.434748         0.423300        -0.770977
 C         4.939465         0.251506        -1.025530
 O         2.610391         0.885175        -1.917680
 C         1.667052         1.182743        -0.980793
 C         2.692286         1.313310         0.201466
 O         1.856354         0.581777         1.131101
 H        -0.312653        -1.442334         0.913274
 H        -0.891404         0.181358         0.254297
 H        -0.336538        -1.046757        -0.807872
 H         2.815015        -1.472759         0.436244
 H         2.479298        -1.578664        -1.324163
 H         5.278070         0.404132        -2.014316
 H         5.608553         0.858807        -0.287669
 H         5.112703        -0.748049        -0.814204
 H         0.924902         1.965482        -1.197062
 H         3.346302         2.208243         0.467865
