19
Iteration:  1264
 C        -0.117496        -0.638797         0.180327
 C         1.316072        -0.116774        -0.036716
 C         2.539589        -0.890917        -0.462708
 C         3.403405         0.290701        -0.823685
 C         4.801315         0.164776        -0.929776
 O         2.718680         0.878294        -1.977051
 C         1.650119         1.258739        -1.023365
 C         2.642242         1.354169         0.089646
 O         1.887667         0.660883         1.171785
 H        -0.008574        -1.136560         1.136434
 H        -0.828014         0.226846         0.385623
 H        -0.435081        -1.505273        -0.443067
 H         3.056218        -1.384526         0.340703
 H         2.384960        -1.565146        -1.408894
 H         5.328090         1.086632        -0.801336
 H         5.346679        -0.555693        -0.303936
 H         5.000450         0.035667        -1.946613
 H         0.747417         1.690285        -1.299807
 H         3.227694         2.254960         0.387523
