19
Iteration:  1884
 C        -0.077080        -0.655940        -0.077289
 C         1.294081        -0.017374        -0.084214
 C         2.583598        -0.918456        -0.390038
 C         3.465463         0.260958        -0.806037
 C         4.928913         0.118673        -1.252828
 O         2.521253         0.851162        -1.854643
 C         1.665336         1.238483        -0.905191
 C         2.665072         1.378423         0.355027
 O         1.840501         0.714497         1.247320
 H        -0.106342        -1.488218         0.611576
 H        -0.793853         0.117497         0.140629
 H        -0.272677        -1.130803        -1.148417
 H         2.761586        -1.189435         0.667855
 H         2.571470        -1.799432        -0.971640
 H         5.380714         1.193398        -1.488069
 H         5.511426        -0.253161        -0.338069
 H         4.963574        -0.531549        -2.109448
 H         0.900065         1.831151        -1.278388
 H         3.329118         2.181497         0.657168
