19
Iteration:  1593charge 0 multiplicity 1
 C        -0.124860        -0.750849         0.204868
 C         1.284400        -0.017395        -0.068630
 C         2.523970        -0.934565        -0.456188
 C         3.375610         0.293135        -0.843858
 C         4.895217         0.160467        -1.010932
 O         2.714041         0.881369        -1.925164
 C         1.644692         1.225778        -0.913526
 C         2.714028         1.382213         0.175325
 O         1.858394         0.759453         1.050485
 H        -0.177296        -1.589733         0.929870
 H        -0.988558        -0.204448         0.474991
 H        -0.324148        -1.331385        -0.753527
 H         2.805894        -1.283110         0.429493
 H         2.418983        -1.783032        -1.214774
 H         5.255400         1.215495        -1.344755
 H         5.372126        -0.196528        -0.112364
 H         5.204165        -0.537998        -1.851009
 H         0.742555         1.764362        -1.229962
 H         3.121825         2.232179         0.708300
