19
Iteration:  4883charge 0 multiplicity 1
 C        -0.146208        -0.547281         0.082453
 C         1.345754        -0.097934        -0.069599
 C         2.596510        -0.987846        -0.513310
 C         3.411105         0.335059        -0.826292
 C         4.868015         0.298031        -1.005220
 O         2.605147         0.783067        -1.944951
 C         1.731886         1.284897        -0.904492
 C         2.694797         1.262746         0.231627
 O         1.808528         0.588037         1.167537
 H        -0.348437        -1.590361         0.425908
 H        -0.566481         0.260624         0.681083
 H        -0.530630        -0.463477        -0.908736
 H         2.879176        -1.484693         0.459294
 H         2.605663        -1.734594        -1.316950
 H         5.099475         1.223508        -1.606891
 H         5.425823         0.239805        -0.032092
 H         5.013565        -0.546318        -1.710527
 H         0.976582         2.122905        -0.997124
 H         3.146496         2.288925         0.593350
