19
Iteration:   977
 C        -0.090806        -0.626091         0.241980
 C         1.338392        -0.103540        -0.066970
 C         2.521599        -0.947023        -0.527657
 C         3.363713         0.310965        -0.909795
 C         4.883863         0.184334        -0.920381
 O         2.692017         0.925772        -1.907794
 C         1.602934         1.238998        -0.969677
 C         2.683832         1.395435         0.116217
 O         1.880314         0.581224         1.081751
 H        -0.088474        -1.612377         0.790641
 H        -0.754978        -0.104881         0.896931
 H        -0.680082        -0.758265        -0.658652
 H         2.779285        -1.425439         0.453661
 H         2.293766        -1.546434        -1.337601
 H         5.299881         1.049896        -1.325432
 H         5.071590         0.268390         0.261020
 H         5.294034        -0.769423        -1.213298
 H         0.956615         2.007884        -1.413827
 H         3.374540         2.177093         0.280545
