19
Iteration:  2530charge 0 multiplicity 1
 C        -0.029025        -0.677810         0.099074
 C         1.320125        -0.000214        -0.067952
 C         2.525469        -0.910133        -0.417734
 C         3.334544         0.300776        -0.819395
 C         4.808003         0.062160        -1.034340
 O         2.639343         0.948934        -1.992962
 C         1.676793         1.294532        -0.882561
 C         2.723041         1.357240         0.190757
 O         1.874510         0.657929         1.162377
 H        -0.020623        -1.120746         1.028613
 H        -1.005209        -0.157718        -0.030893
 H        -0.066623        -1.476836        -0.614269
 H         2.833580        -1.537949         0.368179
 H         2.537612        -1.583884        -1.375894
 H         5.273684         0.968658        -1.346203
 H         5.105666        -0.292660        -0.048798
 H         5.159462        -0.757218        -1.741537
 H         0.778520         1.796973        -1.337727
 H         3.217901         2.178705         0.663769
