19
Iteration:  1448
 C         0.000823        -0.700470         0.273070
 C         1.321475        -0.148275        -0.087443
 C         2.493746        -0.943980        -0.469157
 C         3.339238         0.342674        -0.865265
 C         4.851028         0.100381        -0.869157
 O         2.742985         0.938414        -2.023107
 C         1.582134         1.251435        -1.020030
 C         2.606226         1.402364         0.091006
 O         1.907707         0.731795         1.132975
 H         0.009261        -1.440444         1.068411
 H        -0.766634         0.084025         0.656883
 H        -0.491340        -1.306775        -0.545181
 H         2.851266        -1.486489         0.397032
 H         2.540506        -1.639095        -1.307282
 H         5.270451         1.071983        -0.721211
 H         5.176265        -0.784667        -0.100793
 H         5.092790        -0.185054        -1.884809
 H         0.721933         1.846750        -1.290430
 H         3.194981         2.310402         0.414489
