19
Iteration:  3818
 C        -0.072110        -0.576588         0.172009
 C         1.246580        -0.088991        -0.091806
 C         2.473342        -0.974573        -0.500912
 C         3.415998         0.238720        -0.812806
 C         4.887200         0.253223        -0.895571
 O         2.607275         0.942226        -1.974302
 C         1.648340         1.294397        -0.993602
 C         2.663596         1.305392         0.193811
 O         1.967155         0.532708         1.082110
 H         0.104740        -1.386320         0.923781
 H        -0.573761         0.276852         0.684708
 H        -0.507745        -0.957418        -0.829649
 H         2.791197        -1.441383         0.443177
 H         2.270541        -1.697519        -1.383152
 H         5.099917         1.278314        -1.187880
 H         5.335417        -0.077780         0.184418
 H         5.345781        -0.432760        -1.707329
 H         0.896069         2.092758        -1.191142
 H         3.234252         2.158498         0.567193
