19
Iteration:  4701
 C        -0.070839        -0.563156         0.041642
 C         1.349546        -0.007341        -0.019491
 C         2.497092        -0.978433        -0.512529
 C         3.427039         0.266699        -0.824781
 C         4.894265         0.285081        -0.977816
 O         2.593366         0.831150        -1.852329
 C         1.601260         1.192435        -0.928084
 C         2.731921         1.306701         0.213478
 O         1.863456         0.617766         1.120958
 H        -0.090228        -1.618939         0.283759
 H        -0.562587         0.132414         0.844842
 H        -0.641227        -0.344855        -0.919690
 H         2.873179        -1.599602         0.323193
 H         2.257095        -1.584514        -1.402591
 H         5.110771         0.980002        -1.865590
 H         5.558943         0.570097        -0.165332
 H         5.278807        -0.674511        -1.300597
 H         0.657960         1.665907        -1.478328
 H         3.426523         2.099618         0.569524
