19
Iteration:  4723
 C        -0.195290        -0.564602         0.033591
 C         1.258103        -0.171297        -0.024724
 C         2.508194        -0.987383        -0.386358
 C         3.412216         0.265716        -0.765127
 C         4.859711         0.314707        -1.054640
 O         2.667591         0.857559        -2.009151
 C         1.670928         1.301509        -0.930696
 C         2.713961         1.274940         0.215043
 O         1.951116         0.609850         1.225477
 H        -0.205460        -1.599005         0.381604
 H        -0.824655         0.268638         0.622290
 H        -0.670788        -0.757070        -0.986877
 H         3.048676        -1.638060         0.323349
 H         2.520341        -1.483171        -1.380346
 H         5.274432         1.133978        -1.747311
 H         5.440396         0.318720        -0.127960
 H         5.270600        -0.604184        -1.455462
 H         0.861058         2.162076        -1.269728
 H         2.997504         2.345139         0.231773
