19
Iteration:  1492charge 0 multiplicity 1
 C         0.022499        -0.712182         0.230268
 C         1.277821        -0.080195        -0.179678
 C         2.523796        -0.926745        -0.578771
 C         3.362798         0.272415        -0.793201
 C         4.901813         0.189877        -0.938078
 O         2.644736         0.792126        -1.988254
 C         1.662690         1.266966        -0.957483
 C         2.593166         1.386943         0.198049
 O         1.877268         0.748157         1.156673
 H         0.008140        -1.488243         0.972262
 H        -0.590118         0.158053         0.666999
 H        -0.692881        -1.015911        -0.573328
 H         2.738329        -1.297035         0.383392
 H         2.342192        -1.723052        -1.273638
 H         5.362434         1.171193        -1.074227
 H         5.300163        -0.251720         0.112032
 H         5.159732        -0.516180        -1.705872
 H         1.062680         2.050633        -1.324605
 H         3.165124         2.337632         0.431680
