19
Iteration:  2047charge 0 multiplicity 1
 C         0.020000        -0.651718        -0.040953
 C         1.387367        -0.031829        -0.027125
 C         2.527404        -0.913571        -0.380836
 C         3.381201         0.282742        -0.704789
 C         4.778379         0.083942        -1.222600
 O         2.709245         0.971017        -1.868712
 C         1.578677         1.224512        -0.863770
 C         2.697439         1.331422         0.233585
 O         1.794236         0.663001         1.176886
 H        -0.100320        -1.462448         0.672609
 H        -0.641953         0.172965         0.135883
 H        -0.286850        -1.127729        -1.059634
 H         3.109581        -1.388395         0.555329
 H         2.372636        -1.572153        -1.266103
 H         5.201841         1.097496        -1.519488
 H         5.565614        -0.473229        -0.735747
 H         4.521829        -0.375342        -2.109847
 H         0.729018         1.794773        -1.030192
 H         3.369992         2.124497         0.605668
