19
Iteration:   508
 C        -0.032978        -0.690820         0.075480
 C         1.344076        -0.037355        -0.021417
 C         2.518539        -0.996034        -0.444908
 C         3.376462         0.312113        -0.780017
 C         4.839068         0.267560        -1.079081
 O         2.686584         0.842377        -1.928997
 C         1.693469         1.345903        -0.977600
 C         2.641418         1.345364         0.209776
 O         1.825603         0.615050         1.189225
 H        -0.163744        -1.299868         0.985381
 H        -0.815782        -0.022764         0.186526
 H        -0.220277        -1.354033        -0.861621
 H         2.826239        -1.565926         0.357160
 H         2.197670        -1.553030        -1.383923
 H         5.449375         1.168480        -0.850223
 H         5.155437        -0.529489        -0.441813
 H         4.983687        -0.119705        -2.124534
 H         0.992457         2.077995        -1.419849
 H         3.183889         2.155651         0.696839
