19
Iteration:  3676
 C        -0.177096        -0.591800         0.255630
 C         1.303805        -0.162434        -0.090397
 C         2.493310        -1.021007        -0.579178
 C         3.350146         0.282018        -0.785356
 C         4.972090         0.287972        -0.911253
 O         2.649281         0.993747        -1.928125
 C         1.683393         1.270729        -0.926188
 C         2.663319         1.288541         0.162146
 O         1.922716         0.564816         1.006688
 H        -0.165816        -1.425613         1.028148
 H        -0.626086         0.235382         0.781714
 H        -0.676796        -1.027969        -0.667331
 H         2.760622        -1.628079         0.262612
 H         2.310454        -1.384256        -1.616842
 H         5.222860         1.140181        -1.415780
 H         5.257373         0.184270         0.166234
 H         5.250039        -0.582207        -1.443723
 H         1.125953         2.068448        -1.350822
 H         3.266361         2.068153         0.577317
