19
Iteration:  3129charge 0 multiplicity 1
 C        -0.011887        -0.708969         0.283164
 C         1.308908        -0.041049        -0.107710
 C         2.506453        -0.884640        -0.481140
 C         3.443486         0.339871        -0.757422
 C         4.910387         0.091899        -0.973026
 O         2.648497         0.890865        -1.981818
 C         1.680948         1.301824        -1.008290
 C         2.647448         1.377506         0.172870
 O         1.744401         0.626575         1.056706
 H         0.173358        -1.175690         1.318557
 H        -0.783760         0.079282         0.480059
 H        -0.379796        -1.382901        -0.492736
 H         2.818748        -1.458086         0.459459
 H         2.331960        -1.441494        -1.463002
 H         5.444286         0.961079        -0.840220
 H         5.308554        -0.729898        -0.340344
 H         4.976548        -0.328916        -2.012241
 H         1.019984         2.131454        -1.216346
 H         3.313193         2.187464         0.450446
