19
Iteration:  1267charge 0 multiplicity 1
 C        -0.086057        -0.625025         0.199871
 C         1.305942        -0.101834        -0.063559
 C         2.519661        -0.893174        -0.479951
 C         3.440777         0.291642        -0.834706
 C         4.813795         0.149493        -0.906963
 O         2.711915         0.885169        -1.994732
 C         1.633502         1.229787        -0.993932
 C         2.633366         1.354168         0.110513
 O         1.876187         0.663018         1.143369
 H         0.022606        -1.187470         1.130671
 H        -0.717612         0.168610         0.428561
 H        -0.440703        -1.508378        -0.400147
 H         2.915199        -1.340468         0.379112
 H         2.413134        -1.547711        -1.300087
 H         5.421911         1.154363        -0.790671
 H         5.244456        -0.541041        -0.260763
 H         5.040159         0.027318        -2.024759
 H         0.670312         1.737066        -1.241910
 H         3.233309         2.242549         0.410886
