19
Iteration:  4671
 C        -0.101770        -0.731320         0.172165
 C         1.243453        -0.070807        -0.051699
 C         2.525966        -0.860533        -0.511791
 C         3.470333         0.313998        -0.829180
 C         4.869351         0.143921        -0.924052
 O         2.641996         0.922600        -1.973892
 C         1.712854         1.280460        -0.935467
 C         2.677094         1.391197         0.208196
 O         1.853977         0.586251         1.087811
 H        -0.152919        -1.701781         0.569717
 H        -0.558742        -0.001065         0.942718
 H        -0.857458        -0.807714        -0.655756
 H         2.902747        -1.376871         0.367181
 H         2.375466        -1.602485        -1.325589
 H         5.146113         0.823373        -1.838355
 H         5.582256         0.362462        -0.127679
 H         5.101424        -0.857953        -1.401263
 H         0.941126         1.964120        -1.338880
 H         3.161019         2.290053         0.535230
