19
Iteration:  4232charge 0 multiplicity 1
 C        -0.079398        -0.628370         0.082761
 C         1.291492        -0.058034        -0.043792
 C         2.603095        -0.889707        -0.456870
 C         3.486688         0.300194        -0.760520
 C         4.851416         0.203870        -1.039045
 O         2.604082         0.849141        -1.972381
 C         1.629473         1.164068        -0.900299
 C         2.747091         1.323378         0.226605
 O         1.755923         0.682442         1.131077
 H        -0.091634        -1.166208         1.095554
 H        -0.813244         0.178276         0.105323
 H        -0.197378        -1.231932        -0.810861
 H         3.032371        -1.577330         0.294701
 H         2.434759        -1.424952        -1.380112
 H         5.003373         0.977828        -1.723476
 H         5.681125         0.363739        -0.242585
 H         5.224100        -0.649267        -1.640955
 H         0.765632         1.707564        -1.093336
 H         3.180438         2.167440         0.642671
