19
Iteration:  2486
 C        -0.041778        -0.605076         0.374285
 C         1.298977        -0.015524        -0.116089
 C         2.492502        -0.951935        -0.607396
 C         3.395778         0.301351        -0.840784
 C         4.848634         0.234909        -0.876705
 O         2.683906         0.913819        -2.015935
 C         1.695714         1.198588        -1.039015
 C         2.630182         1.275335         0.224652
 O         1.888620         0.616959         1.083343
 H         0.063517        -1.497922         0.823150
 H        -0.712733         0.123218         0.857153
 H        -0.680982        -0.805297        -0.453022
 H         2.761866        -1.649343         0.111590
 H         2.166258        -1.462098        -1.614083
 H         5.368609         1.164279        -0.969234
 H         5.034179        -0.307445         0.047642
 H         5.137943        -0.638950        -1.564867
 H         1.034135         2.091577        -1.335798
 H         3.173872         2.074817         0.673009
