19
Iteration:  1188
 C        -0.063750        -0.666333         0.076227
 C         1.299006        -0.100565        -0.022511
 C         2.467010        -0.938774        -0.319608
 C         3.439844         0.302786        -0.775584
 C         4.883125         0.165327        -1.078583
 O         2.650370         0.912491        -1.908968
 C         1.612513         1.193218        -0.989274
 C         2.681424         1.418324         0.135558
 O         1.870998         0.644890         1.139839
 H        -0.057655        -1.467251         0.759867
 H        -0.747555         0.145471         0.473946
 H        -0.398015        -0.912053        -0.958777
 H         2.870618        -1.467195         0.453496
 H         2.285418        -1.587065        -1.229084
 H         5.189104         1.087399        -1.641369
 H         5.631104         0.085855        -0.209287
 H         5.173523        -0.722559        -1.636992
 H         0.951656         1.928342        -1.328299
 H         3.270495         2.338245         0.402215
