19
Iteration:   606charge 0 multiplicity 1
 C        -0.090229        -0.651526         0.173803
 C         1.250044        -0.051346        -0.050838
 C         2.515094        -0.898872        -0.515023
 C         3.356655         0.229448        -0.907006
 C         4.885602         0.273399        -0.923956
 O         2.708992         0.904440        -2.022733
 C         1.667121         1.251901        -0.926129
 C         2.662215         1.288444         0.210540
 O         1.895216         0.592423         1.146169
 H        -0.109379        -1.655192         0.717818
 H        -0.650255         0.034915         0.802984
 H        -0.678750        -0.918232        -0.776787
 H         2.870274        -1.600220         0.172174
 H         2.311394        -1.304392        -1.599432
 H         5.213740         1.265217        -1.266363
 H         5.155458         0.336008         0.154906
 H         5.410544        -0.626024        -1.304438
 H         0.902123         2.022746        -1.226092
 H         3.294529         2.031062         0.697257
