19
Iteration:  4616charge 0 multiplicity 1
 C        -0.007679        -0.713043         0.160111
 C         1.240507        -0.002205        -0.096512
 C         2.610902        -0.873984        -0.492833
 C         3.423686         0.383922        -0.777564
 C         4.892911         0.115199        -1.016231
 O         2.576860         0.839287        -1.917150
 C         1.643483         1.282088        -0.941196
 C         2.682153         1.335626         0.220684
 O         1.828899         0.652303         1.082719
 H        -0.072063        -1.108031         1.107740
 H        -0.972500        -0.046520         0.184931
 H        -0.165919        -1.412470        -0.699129
 H         2.760316        -1.621803         0.289324
 H         2.571857        -1.428130        -1.450431
 H         5.510468         1.097103        -0.835156
 H         5.070548        -0.594202        -0.188573
 H         5.016269        -0.386804        -2.006803
 H         0.944912         2.091232        -1.344563
 H         3.352396         2.052607         0.704677
