19
Iteration:  1242
 C        -0.096529        -0.632292         0.145698
 C         1.297946        -0.089768         0.037684
 C         2.475585        -0.999581        -0.401666
 C         3.488254         0.295473        -0.765083
 C         4.892985         0.257285        -1.081024
 O         2.642005         0.813440        -1.941425
 C         1.658582         1.232363        -0.992320
 C         2.635663         1.397388         0.189893
 O         1.883480         0.682123         1.082461
 H        -0.509650        -1.201385         0.960408
 H        -0.762553         0.266511        -0.077008
 H        -0.057391        -1.404738        -0.645076
 H         2.701511        -1.635416         0.438774
 H         2.324875        -1.574267        -1.401563
 H         5.461608         1.136133        -0.988997
 H         5.365148        -0.450072        -0.340106
 H         5.061733        -0.027275        -2.060954
 H         0.972547         1.985142        -1.277928
 H         3.148549         2.280473         0.629647
