19
Iteration:  4083
 C        -0.123141        -0.650943        -0.014330
 C         1.336080        -0.068323        -0.101980
 C         2.535503        -0.895501        -0.358081
 C         3.443807         0.297142        -0.732082
 C         4.842959         0.229740        -1.116248
 O         2.633417         0.811797        -1.963821
 C         1.685497         1.205831        -0.900172
 C         2.662580         1.393575         0.252496
 O         1.903301         0.631068         1.218044
 H        -0.188778        -1.299563         0.800188
 H        -0.975650         0.125957         0.205518
 H        -0.485303        -1.185064        -0.933212
 H         2.755690        -1.508265         0.551301
 H         2.376992        -1.404218        -1.298022
 H         5.146469         1.031350        -1.739362
 H         5.568263         0.253789        -0.339607
 H         4.988154        -0.683601        -1.695811
 H         0.940348         1.890594        -1.273310
 H         3.034883         2.387056         0.397117
