19
Iteration:  3180charge 0 multiplicity 1
 C        -0.050162        -0.588064         0.202831
 C         1.336338        -0.052402         0.011837
 C         2.454448        -0.966088        -0.584677
 C         3.412022         0.323228        -0.791317
 C         4.855158         0.210681        -0.889002
 O         2.628176         0.811142        -1.995454
 C         1.650184         1.226065        -0.941205
 C         2.651271         1.352915         0.142299
 O         1.918068         0.644273         1.076468
 H         0.191605        -1.389819         0.838408
 H        -0.785095         0.144872         0.708773
 H        -0.352510        -0.989920        -0.772570
 H         2.749548        -1.671813         0.121737
 H         2.350807        -1.328717        -1.644993
 H         5.409788         1.272386        -0.699220
 H         5.020700        -0.373134        -0.000374
 H         5.265185        -0.396787        -1.721429
 H         0.819552         1.961428        -1.274452
 H         3.222363         2.242111         0.424532
