19
Iteration:  1238
 C        -0.086940        -0.619400         0.098653
 C         1.323767        -0.072707         0.010698
 C         2.450624        -0.966969        -0.408463
 C         3.484210         0.292121        -0.775658
 C         4.929514         0.257792        -1.081703
 O         2.629532         0.786361        -1.927395
 C         1.672951         1.234353        -0.937946
 C         2.656659         1.387449         0.161503
 O         1.847410         0.678780         1.104256
 H        -0.371917        -1.175855         1.081362
 H        -0.805166         0.227516        -0.069354
 H        -0.106453        -1.386536        -0.657291
 H         2.692680        -1.631339         0.570325
 H         2.291136        -1.561106        -1.316211
 H         5.449153         1.235067        -1.051151
 H         5.529917        -0.429498        -0.421544
 H         5.068848        -0.137050        -2.144401
 H         0.704590         1.854711        -1.186523
 H         3.091086         2.245181         0.650950
