19
Iteration:   524charge 0 multiplicity 1
 C        -0.058721        -0.717040         0.029746
 C         1.225264        -0.041315        -0.119585
 C         2.509325        -0.834619        -0.461580
 C         3.428953         0.257614        -0.745201
 C         4.884834         0.160302        -1.119116
 O         2.658851         0.912459        -1.857550
 C         1.667429         1.168193        -0.871556
 C         2.703538         1.352943         0.240990
 O         1.839996         0.683072         1.154173
 H         0.005258        -1.349475         0.929650
 H        -1.023722        -0.043061         0.002248
 H        -0.241209        -1.346702        -0.788199
 H         2.836897        -1.413091         0.521221
 H         2.558904        -1.602979        -1.176422
 H         5.210558         1.195880        -1.131796
 H         5.596498        -0.514685        -0.562247
 H         4.961978         0.048785        -2.184213
 H         0.897633         1.885556        -1.151972
 H         3.229449         2.295931         0.447966
