19
Iteration:   894charge 0 multiplicity 1
 C        -0.044423        -0.660858         0.028589
 C         1.313080        -0.009436        -0.103933
 C         2.553294        -0.923029        -0.346589
 C         3.432625         0.260552        -0.783475
 C         4.899205         0.172833        -1.134285
 O         2.595475         0.884758        -1.868000
 C         1.673325         1.230983        -0.868416
 C         2.666057         1.337775         0.213819
 O         1.802068         0.682588         1.109423
 H        -0.158787        -1.283532         0.899515
 H        -0.895569         0.097229        -0.063575
 H        -0.241440        -1.394635        -0.730494
 H         2.878573        -1.530022         0.552540
 H         2.275471        -1.588418        -1.208725
 H         5.557229         1.076189        -1.132007
 H         5.381274        -0.531868        -0.447666
 H         5.105829        -0.261818        -2.125113
 H         0.915348         1.994192        -1.082167
 H         3.242988         2.278559         0.500370
