19
Iteration:  4291
 C        -0.066759        -0.653447         0.101713
 C         1.341959        -0.075895        -0.051647
 C         2.558011        -0.986823        -0.484308
 C         3.417339         0.334817        -0.784136
 C         4.898649         0.255568        -1.022724
 O         2.603345         0.777692        -1.874282
 C         1.661864         1.259830        -0.943505
 C         2.689742         1.356423         0.110411
 O         1.822369         0.684474         1.174382
 H        -0.140603        -1.554407         0.596649
 H        -0.680748         0.130978         0.629988
 H        -0.494452        -0.859251        -0.892745
 H         2.945375        -1.814520         0.163822
 H         2.385198        -1.349431        -1.545279
 H         5.272294         1.231388        -1.510635
 H         5.208975         0.142339        -0.022940
 H         5.081709        -0.672218        -1.567127
 H         0.856990         2.006161        -1.309684
 H         3.087921         2.291427         0.641386
