19
Iteration:  3739
 C        -0.100021        -0.754730        -0.021753
 C         1.240774        -0.094406        -0.017735
 C         2.598370        -0.865451        -0.350402
 C         3.456844         0.293540        -0.766546
 C         4.795579         0.078312        -1.117185
 O         2.609780         1.000317        -1.953538
 C         1.676965         1.300964        -0.920142
 C         2.721702         1.345536         0.197770
 O         1.835752         0.675008         1.208547
 H        -0.177011        -1.590498         0.772156
 H        -0.936224        -0.050125         0.125538
 H        -0.214705        -1.221362        -1.042688
 H         3.019040        -1.395437         0.586433
 H         2.555010        -1.682464        -1.196104
 H         5.548011         0.986884        -1.221252
 H         5.478872        -0.670173        -0.503832
 H         4.986133        -0.268869        -2.191691
 H         0.990896         2.127029        -1.029839
 H         3.275893         2.158745         0.668608
