19
Iteration:  2353
 C        -0.000362        -0.642007         0.146996
 C         1.348769        -0.080870        -0.138329
 C         2.442998        -0.959575        -0.586567
 C         3.396474         0.280637        -0.778174
 C         4.860945         0.089115        -0.993383
 O         2.643454         0.967860        -1.910510
 C         1.623412         1.264313        -0.900316
 C         2.621066         1.357810         0.206324
 O         1.906681         0.658241         1.122712
 H         0.119835        -1.028040         1.143550
 H        -0.727395         0.201513         0.239195
 H        -0.400848        -1.575226        -0.336180
 H         2.693021        -1.725020         0.168416
 H         2.363100        -1.331714        -1.623829
 H         5.397934         1.118003        -0.978184
 H         5.408042        -0.246367        -0.115318
 H         5.109097        -0.585222        -1.891132
 H         0.883261         2.102752        -1.154508
 H         3.174276         2.177012         0.760291
