19
Iteration:  3419charge 0 multiplicity 1
 C        -0.023220        -0.711192        -0.050225
 C         1.293406        -0.014562        -0.018822
 C         2.579453        -0.921954        -0.352673
 C         3.404805         0.294904        -0.729097
 C         4.806361         0.079115        -1.182897
 O         2.651181         0.979019        -1.893213
 C         1.673524         1.262608        -0.894625
 C         2.724041         1.345755         0.212050
 O         1.812450         0.663226         1.194895
 H        -0.062963        -1.573552         0.596073
 H        -0.960389        -0.113658         0.251333
 H        -0.188717        -1.164526        -1.086979
 H         2.859864        -1.404680         0.560732
 H         2.486791        -1.626285        -1.209652
 H         5.217205         1.084277        -1.551525
 H         5.414832        -0.406421        -0.438649
 H         4.685029        -0.535778        -2.057422
 H         0.814441         1.995428        -1.155516
 H         3.160365         2.295734         0.559930
