19
Iteration:   379
 C        -0.045120        -0.703108        -0.052621
 C         1.400831        -0.107062        -0.106128
 C         2.598490        -0.900233        -0.383417
 C         3.411524         0.330415        -0.722155
 C         4.754491         0.190610        -1.125096
 O         2.621620         0.873071        -1.863678
 C         1.678864         1.193169        -0.839713
 C         2.713780         1.409919         0.220839
 O         1.799644         0.687673         1.138477
 H        -0.111466        -1.462852         0.729946
 H        -0.800304         0.053668         0.066130
 H        -0.406705        -1.250611        -0.934361
 H         2.943231        -1.429381         0.503657
 H         2.518150        -1.615344        -1.235878
 H         5.170784         1.072829        -1.665841
 H         5.323292        -0.107721        -0.291042
 H         4.709494        -0.676620        -1.831366
 H         1.023004         1.992403        -1.170541
 H         3.080215         2.326044         0.629014
