19
Iteration:   341charge 0 multiplicity 1
 C        -0.118244        -0.678029         0.071650
 C         1.250876        -0.117841        -0.025234
 C         2.552970        -0.915659        -0.425405
 C         3.439677         0.333323        -0.793371
 C         4.918334         0.230227        -1.058888
 O         2.632355         0.887643        -1.907975
 C         1.683590         1.144915        -0.933488
 C         2.707368         1.367602         0.171697
 O         1.812550         0.662848         1.137285
 H        -0.142608        -1.325023         0.972009
 H        -0.840314         0.199304         0.165278
 H        -0.267165        -1.262940        -0.861561
 H         2.999185        -1.394862         0.495634
 H         2.362775        -1.575179        -1.298940
 H         5.439106         1.185873        -0.878852
 H         5.422995        -0.656151        -0.523917
 H         5.059169         0.121512        -2.147968
 H         0.945785         1.961596        -1.060601
 H         3.028385         2.396985         0.478982
