19
Iteration:  1466
 C        -0.014615        -0.687836         0.299663
 C         1.297335        -0.033247         0.035198
 C         2.552446        -0.868685        -0.541661
 C         3.376962         0.332504        -0.767335
 C         4.893209         0.115135        -0.884440
 O         2.650550         0.961640        -1.957707
 C         1.638579         1.127068        -1.043562
 C         2.645511         1.368460         0.059906
 O         1.865175         0.673307         1.026732
 H         0.139048        -1.508562         1.048137
 H        -0.869777        -0.092647         0.688022
 H        -0.553769        -1.070748        -0.533276
 H         3.021805        -1.677316         0.190357
 H         2.116887        -1.315099        -1.392174
 H         5.544106         0.936296        -0.564018
 H         4.996246        -0.573548        -0.066157
 H         5.176896        -0.441081        -1.831317
 H         0.901480         1.811888        -1.621805
 H         2.948176         2.374055         0.169500
