19
Iteration:  1556charge 0 multiplicity 1
 C        -0.059277        -0.552449         0.004665
 C         1.373039        -0.095610         0.007605
 C         2.637408        -0.930950        -0.402447
 C         3.446586         0.308995        -0.734151
 C         4.823317         0.208841        -1.109036
 O         2.579591         0.744443        -1.928970
 C         1.572832         1.191754        -0.898908
 C         2.672642         1.417831         0.242176
 O         1.842542         0.669930         1.100801
 H        -0.277498        -1.255406         0.783828
 H        -0.669117         0.400122        -0.081727
 H        -0.132422        -0.977894        -0.999080
 H         3.025310        -1.552247         0.514516
 H         2.542214        -1.562815        -1.241166
 H         5.144091         0.975694        -1.759424
 H         5.557761         0.272288        -0.203813
 H         4.918822        -0.749886        -1.570255
 H         0.681237         1.764696        -1.127774
 H         3.197353         2.306153         0.710658
