19
Iteration:   464
 C        -0.115749        -0.574426         0.237181
 C         1.252926        -0.129997        -0.128148
 C         2.516899        -0.992018        -0.537258
 C         3.392025         0.404518        -0.892020
 C         4.929030         0.225142        -0.876491
 O         2.703838         0.899772        -1.969258
 C         1.559045         1.202001        -0.959342
 C         2.622908         1.341336         0.173625
 O         1.939222         0.567402         1.122515
 H         0.109854        -1.437551         0.887560
 H        -0.555596         0.078448         0.840864
 H        -0.498517        -1.007427        -0.781378
 H         2.798740        -1.563790         0.243047
 H         2.450232        -1.440616        -1.615364
 H         5.356360         1.266528        -0.941136
 H         5.233770        -0.058883         0.074026
 H         5.374336        -0.515314        -1.579735
 H         0.860037         2.005876        -1.258550
 H         3.039271         2.311529         0.551804
