19
Iteration:  1325
 C         0.009488        -0.688089         0.185207
 C         1.268733        -0.029407        -0.029953
 C         2.409356        -0.930199        -0.435619
 C         3.409845         0.287463        -0.821262
 C         4.874289         0.164155        -0.954975
 O         2.722080         0.945456        -1.908437
 C         1.630996         1.177386        -1.024149
 C         2.674463         1.354443         0.072689
 O         1.879468         0.696903         1.120115
 H         0.341986        -1.585074         0.751042
 H        -0.758429        -0.249980         0.836570
 H        -0.536692        -0.963206        -0.655443
 H         2.761616        -1.712204         0.297900
 H         2.229645        -1.451019        -1.297261
 H         5.148129         1.120028        -1.371589
 H         5.148935         0.056548         0.134015
 H         5.065080        -0.773667        -1.532844
 H         0.820457         1.792371        -1.514013
 H         3.175723         2.302047         0.150556
