19
Iteration:   175charge 0 multiplicity 1
 C        -0.102949        -0.642799         0.071210
 C         1.308534        -0.109672        -0.075195
 C         2.518617        -0.950530        -0.427627
 C         3.436193         0.405952        -0.776611
 C         4.904377         0.240301        -1.059822
 O         2.590221         0.836569        -1.915633
 C         1.713546         1.261101        -0.893848
 C         2.620629         1.359294         0.223665
 O         1.891007         0.593791         1.084707
 H        -0.271834        -1.438719         0.861792
 H        -0.957373         0.128530         0.239388
 H        -0.464250        -1.260841        -0.780421
 H         3.023843        -1.480941         0.494513
 H         2.514175        -1.458924        -1.358237
 H         5.216426         0.495223        -2.079633
 H         5.589029         0.786517        -0.267638
 H         5.170153        -0.822416        -0.937241
 H         1.019058         1.989044        -1.220308
 H         3.016013         2.247938         0.690866
