19
Iteration:  3703
 C        -0.007775        -0.659858         0.083809
 C         1.330421        -0.020624        -0.065630
 C         2.483192        -0.835473        -0.562548
 C         3.340967         0.302410        -0.805156
 C         4.882254         0.164995        -1.020529
 O         2.684405         0.888591        -1.948927
 C         1.618132         1.210090        -0.899294
 C         2.635941         1.332617         0.239955
 O         1.887424         0.573696         1.181785
 H         0.056713        -1.383016         0.869305
 H        -0.650123         0.162113         0.525220
 H        -0.440602        -1.125666        -0.745409
 H         2.640890        -1.529787         0.301110
 H         2.245694        -1.309343        -1.493713
 H         5.301065         1.285310        -1.214462
 H         5.275241        -0.127318        -0.037350
 H         5.162523        -0.688029        -1.726538
 H         1.033932         1.997858        -1.447149
 H         3.171818         2.224494         0.685930
