19
Iteration:  1346
 C        -0.044767        -0.662032         0.140135
 C         1.304185        -0.095484        -0.089955
 C         2.539658        -0.934429        -0.444507
 C         3.432526         0.326165        -0.787706
 C         4.955315         0.132775        -0.983915
 O         2.558731         0.806112        -1.996131
 C         1.657534         1.251711        -0.971246
 C         2.667184         1.420827         0.234527
 O         1.846696         0.702274         1.123081
 H        -0.261523        -1.612346         0.655405
 H        -0.749592         0.059579         0.506461
 H        -0.450637        -0.743763        -0.843361
 H         3.030823        -1.413959         0.408346
 H         2.512304        -1.623976        -1.185713
 H         5.165406         0.988801        -1.652578
 H         5.417812         0.264096        -0.022420
 H         5.140207        -0.871145        -1.466077
 H         0.851589         2.031372        -1.126597
 H         3.059257         2.347145         0.614512
