19
Iteration:  4537charge 0 multiplicity 1
 C        -0.081343        -0.596631         0.177482
 C         1.284147        -0.045182        -0.086524
 C         2.544855        -0.970638        -0.431796
 C         3.385376         0.342006        -0.792425
 C         4.928417         0.253610        -1.074545
 O         2.636641         0.844027        -1.895452
 C         1.659706         1.238097        -1.005621
 C         2.655829         1.320682         0.197079
 O         1.879168         0.592789         1.109511
 H        -0.029431        -1.398270         0.879332
 H        -0.828957         0.192700         0.384674
 H        -0.320806        -0.959940        -0.827338
 H         2.945700        -1.338505         0.536427
 H         2.412450        -1.813727        -1.086982
 H         5.392174         1.260280        -0.970340
 H         5.180380        -0.459442        -0.240052
 H         4.935067        -0.219063        -2.065855
 H         0.800549         1.858909        -1.411808
 H         3.080844         2.218593         0.661848
