19
Iteration:  1301charge 0 multiplicity 1
 C        -0.057566        -0.762348         0.306436
 C         1.276042        -0.096351        -0.024277
 C         2.528129        -0.879596        -0.568411
 C         3.417120         0.275825        -0.803114
 C         4.913188         0.134444        -0.856236
 O         2.674257         0.835874        -2.047417
 C         1.676231         1.368295        -1.009798
 C         2.608505         1.414826         0.145157
 O         1.847131         0.703628         1.069469
 H         0.091865        -1.549194         1.064163
 H        -0.685369        -0.079182         0.790055
 H        -0.686498        -1.106336        -0.516602
 H         2.792438        -1.591422         0.174016
 H         2.374618        -1.438722        -1.414980
 H         5.309397         1.200865        -0.990037
 H         5.215155        -0.376937        -0.000632
 H         5.018224        -0.543105        -1.759588
 H         0.917366         2.095439        -1.439560
 H         3.315035         2.135027         0.544874
