19
Iteration:    69charge 0 multiplicity 1
 C        -0.049986        -0.667395        -0.024063
 C         1.328651        -0.097270        -0.037717
 C         2.583427        -0.867449        -0.471215
 C         3.411435         0.333500        -0.730464
 C         4.791377         0.180215        -1.044745
 O         2.619686         0.939245        -1.935529
 C         1.680946         1.191765        -0.870741
 C         2.669522         1.320625         0.231671
 O         1.861709         0.604578         1.164257
 H        -0.192145        -1.498143         0.646273
 H        -0.947360         0.041300         0.123951
 H        -0.235727        -1.004910        -0.961365
 H         2.971113        -1.573940         0.299368
 H         2.523319        -1.441641        -1.341157
 H         5.046362        -0.815960        -1.204955
 H         4.998932         0.748821        -2.037258
 H         5.415539         0.578195        -0.324925
 H         1.005593         2.026019        -1.012470
 H         3.071244         2.346241         0.616502
