19
Iteration:  1443
 C        -0.002964        -0.687110         0.223455
 C         1.311143        -0.144757        -0.109717
 C         2.511613        -0.966023        -0.413633
 C         3.322634         0.337346        -0.831028
 C         4.904650         0.096119        -0.891031
 O         2.698534         0.903145        -2.074295
 C         1.594538         1.311767        -0.979608
 C         2.640316         1.421298         0.136327
 O         1.889084         0.710993         1.128885
 H         0.165538        -1.367845         1.119329
 H        -0.775013        -0.039772         0.545861
 H        -0.643828        -1.279748        -0.405476
 H         2.814563        -1.610703         0.482788
 H         2.451339        -1.587478        -1.348910
 H         5.325999         1.126778        -0.688223
 H         5.258495        -0.565214        -0.195404
 H         5.143218        -0.190156        -1.959223
 H         0.662263         1.819194        -1.432726
 H         3.158266         2.286869         0.472522
