19
Iteration:  1731charge 0 multiplicity 1
 C        -0.036306        -0.625449        -0.009328
 C         1.302755        -0.059865         0.000648
 C         2.543398        -0.956967        -0.306324
 C         3.412728         0.306642        -0.888168
 C         4.902680         0.205547        -1.179943
 O         2.691819         0.831879        -1.894588
 C         1.604900         1.232439        -0.899270
 C         2.674922         1.341566         0.204355
 O         1.762460         0.684489         1.188944
 H        -0.122588        -1.394788         0.731982
 H        -0.791383         0.095594         0.306864
 H        -0.122305        -0.972689        -1.099639
 H         3.024382        -1.394449         0.650061
 H         2.337402        -1.745028        -1.046370
 H         5.111959         0.972954        -1.939861
 H         5.500805         0.271383        -0.224168
 H         5.156508        -0.719112        -1.594102
 H         0.838601         1.936098        -1.038465
 H         3.276603         2.196935         0.574027
