19
Iteration:  4771charge 0 multiplicity 1
 C        -0.051531        -0.687220         0.131311
 C         1.324861        -0.078209        -0.045164
 C         2.558908        -0.935594        -0.575469
 C         3.414109         0.323697        -0.777083
 C         4.878640         0.151498        -1.010833
 O         2.661229         0.914955        -1.914798
 C         1.649649         1.269700        -0.987289
 C         2.638350         1.399306         0.198617
 O         1.786473         0.684237         1.205208
 H        -0.080482        -1.257743         1.088436
 H        -0.841643        -0.005555         0.043934
 H        -0.322969        -1.560614        -0.493832
 H         2.771764        -1.590706         0.270264
 H         2.285806        -1.545663        -1.434033
 H         5.601378         0.950644        -1.061209
 H         5.325689        -0.698625        -0.419129
 H         4.964230        -0.315798        -2.077661
 H         1.043861         2.035170        -1.274960
 H         3.472473         1.929843         0.596693
