19
Iteration:  2652
 C        -0.029881        -0.646365         0.264977
 C         1.354463        -0.106317         0.021836
 C         2.466702        -0.876203        -0.568651
 C         3.363879         0.311534        -0.804611
 C         4.840362         0.074133        -0.789437
 O         2.624362         0.930124        -2.002222
 C         1.708667         1.236522        -1.065794
 C         2.654247         1.374426         0.061645
 O         1.932864         0.688681         1.075684
 H         0.064627        -1.691055         0.584968
 H        -0.560739        -0.090292         1.054135
 H        -0.716995        -0.652314        -0.523163
 H         2.802200        -1.822561         0.034908
 H         2.077080        -1.404617        -1.492936
 H         5.211614         1.109865        -1.010713
 H         5.258666        -0.262952         0.280211
 H         5.055658        -0.679104        -1.484309
 H         0.767054         1.616415        -1.320161
 H         3.172427         2.405307         0.344373
