19
Iteration:  1469
 C        -0.011404        -0.675314         0.290092
 C         1.297190        -0.039304         0.026591
 C         2.534878        -0.886059        -0.522139
 C         3.400118         0.350141        -0.773889
 C         4.935018         0.113189        -0.884390
 O         2.635558         0.936847        -1.975429
 C         1.622010         1.154151        -1.043681
 C         2.655336         1.381562         0.073055
 O         1.850242         0.669349         1.032866
 H         0.121216        -1.501489         0.981711
 H        -0.893583        -0.102124         0.805330
 H        -0.568488        -1.162777        -0.506700
 H         2.939028        -1.721415         0.075009
 H         2.189599        -1.207991        -1.456497
 H         5.508159         0.990273        -0.672318
 H         5.059732        -0.679042         0.041361
 H         5.181019        -0.424560        -1.797732
 H         0.850116         1.739587        -1.549058
 H         2.988355         2.433313         0.256327
