19
Iteration:  4341charge 0 multiplicity 1
 C        -0.041226        -0.756647         0.233330
 C         1.283318        -0.082738        -0.101196
 C         2.581073        -0.941246        -0.485531
 C         3.379443         0.330955        -0.696518
 C         4.793298         0.117096        -0.957957
 O         2.702155         0.905316        -1.936082
 C         1.626729         1.309556        -1.040964
 C         2.599065         1.444815         0.152011
 O         1.900139         0.697831         1.051796
 H         0.191061        -1.684257         0.900137
 H        -0.758988        -0.091753         0.784590
 H        -0.452052        -1.175301        -0.694088
 H         3.008047        -1.440205         0.375578
 H         2.710819        -1.554452        -1.335940
 H         5.300034         0.989687        -0.719443
 H         5.073872        -0.815256        -0.396637
 H         4.728754        -0.018311        -2.046417
 H         0.925592         1.926763        -1.517844
 H         3.318458         1.996143         0.646780
