19
Iteration:  4379
 C        -0.098808        -0.671322         0.126856
 C         1.288505        -0.046823         0.022365
 C         2.561100        -0.925590        -0.453662
 C         3.391041         0.270087        -0.856313
 C         4.989023         0.218414        -1.045333
 O         2.640773         0.903193        -1.957772
 C         1.578616         1.191802        -0.963077
 C         2.718777         1.296229         0.147859
 O         1.787245         0.730149         1.173849
 H        -0.172988        -1.275102         0.986339
 H        -0.989923        -0.005832         0.090403
 H        -0.202374        -1.367633        -0.730847
 H         2.887272        -1.406981         0.504362
 H         2.352266        -1.702770        -1.264883
 H         5.658769         1.131470        -0.789810
 H         5.520859        -0.543151        -0.511799
 H         5.368655        -0.106639        -2.020141
 H         0.656353         1.854381        -1.090220
 H         3.271762         2.136460         0.713512
