19
Iteration:  3533
 C        -0.096569        -0.567049         0.159547
 C         1.298940        -0.118432        -0.075102
 C         2.595559        -0.994778        -0.562787
 C         3.380785         0.252982        -0.871320
 C         4.851358         0.215890        -1.002754
 O         2.662608         0.926497        -1.920839
 C         1.665465         1.274105        -0.883450
 C         2.629628         1.328367         0.228544
 O         1.861686         0.636169         1.156241
 H        -0.144837        -1.515376         0.853307
 H        -0.864415         0.221029         0.409125
 H        -0.303494        -1.003092        -0.858119
 H         2.833411        -1.715044         0.261507
 H         2.340466        -1.442891        -1.540234
 H         5.381517         1.180620        -1.044969
 H         5.364378        -0.468855        -0.155925
 H         5.373227        -0.252219        -1.912515
 H         0.868509         1.920987        -1.155819
 H         3.202047         2.216343         0.557196
