19
Iteration:   955charge 0 multiplicity 1
 C        -0.080220        -0.611405         0.256426
 C         1.359742        -0.089295        -0.121417
 C         2.500597        -0.952890        -0.578325
 C         3.403360         0.301922        -0.752207
 C         4.944980         0.257848        -0.852318
 O         2.602178         0.862903        -2.085475
 C         1.658952         1.244236        -1.005097
 C         2.633269         1.343934         0.219040
 O         1.880098         0.600961         1.107259
 H        -0.219065        -1.497817         0.953165
 H        -0.532795         0.152854         0.872109
 H        -0.633250        -0.613587        -0.687148
 H         2.814772        -1.701005         0.207531
 H         2.342432        -1.368375        -1.502730
 H         5.322490         1.063374        -1.367021
 H         5.500545         0.077595         0.191459
 H         4.928538        -0.651208        -1.407330
 H         0.766033         1.882139        -0.976486
 H         3.289922         2.135327         0.454307
