19
Iteration:   871
 C        -0.053533        -0.689430         0.009251
 C         1.349211        -0.034634        -0.005604
 C         2.522867        -0.904704        -0.407737
 C         3.401453         0.337791        -0.772672
 C         4.847275         0.103847        -1.173851
 O         2.690625         0.854892        -1.918373
 C         1.694810         1.246952        -0.999291
 C         2.613492         1.440264         0.308750
 O         1.801399         0.656840         1.240098
 H        -0.342757        -1.330480         0.872259
 H        -0.873470         0.127905        -0.116243
 H        -0.267582        -1.415379        -0.692752
 H         3.076260        -1.555895         0.411366
 H         2.545590        -1.465968        -1.318518
 H         5.514115         0.960859        -1.268301
 H         5.463217        -0.657658        -0.541302
 H         4.901238        -0.291715        -2.179910
 H         0.898146         1.865146        -1.419768
 H         3.047612         2.414329         0.699628
