19
Iteration:  4036
 C        -0.028652        -0.713565         0.144399
 C         1.281299        -0.019566        -0.103819
 C         2.517466        -0.906567        -0.527279
 C         3.408265         0.346176        -0.827982
 C         4.869417         0.078507        -0.964654
 O         2.566299         0.922413        -1.993550
 C         1.722630         1.235324        -0.873709
 C         2.671183         1.370685         0.215836
 O         1.816519         0.651059         1.117053
 H         0.330249        -1.405685         1.045120
 H        -0.805941        -0.025456         0.541609
 H        -0.491254        -1.325402        -0.722865
 H         3.012931        -1.401673         0.411555
 H         2.485238        -1.518518        -1.542653
 H         5.449307         0.898740        -1.445049
 H         5.357817         0.328344         0.115355
 H         5.271585        -0.895010        -1.298598
 H         1.049187         2.048368        -1.334198
 H         3.249866         2.267347         0.583988
