19
Iteration:  1235charge 0 multiplicity 1
 C        -0.081488        -0.609532         0.077490
 C         1.334672        -0.058138        -0.015776
 C         2.450482        -0.949415        -0.400474
 C         3.456942         0.289041        -0.778844
 C         4.960533         0.247918        -1.084742
 O         2.622188         0.772793        -1.918144
 C         1.672107         1.230495        -0.908395
 C         2.674577         1.376577         0.148137
 O         1.824969         0.676835         1.127184
 H        -0.225965        -1.077861         1.077587
 H        -0.820471         0.127036        -0.059360
 H        -0.194075        -1.390418        -0.724323
 H         2.690683        -1.539977         0.486179
 H         2.272947        -1.552676        -1.239439
 H         5.428613         1.342975        -1.080328
 H         5.585525        -0.384344        -0.502386
 H         5.065228        -0.199555        -2.156381
 H         0.677513         1.724789        -1.137587
 H         3.095294         2.266910         0.635173
