19
Iteration:  2172charge 0 multiplicity 1
 C        -0.089358        -0.580381         0.250294
 C         1.313814        -0.070840        -0.083124
 C         2.574778        -0.965606        -0.593116
 C         3.365036         0.220785        -0.884109
 C         4.804908         0.250107        -0.947140
 O         2.633169         0.985792        -1.935754
 C         1.714971         1.294939        -0.959331
 C         2.606081         1.255517         0.237360
 O         1.920703         0.531812         1.095278
 H        -0.106854        -1.012630         1.271187
 H        -0.770029         0.314951         0.397378
 H        -0.450462        -1.173813        -0.504764
 H         2.965411        -1.569243         0.200290
 H         2.335529        -1.626359        -1.607924
 H         5.299926         1.186873        -0.784221
 H         5.150830        -0.382309        -0.076464
 H         5.271183        -0.242203        -1.878237
 H         1.070746         2.177661        -1.382834
 H         3.231337         2.023757         0.648069
