19
Iteration:  1638charge 0 multiplicity 1
 C        -0.006876        -0.687675         0.342606
 C         1.301648        -0.058430        -0.136675
 C         2.475105        -0.872922        -0.568493
 C         3.355447         0.322483        -0.843262
 C         4.885013         0.126954        -0.838001
 O         2.681253         0.895830        -1.917443
 C         1.622997         1.161784        -1.018026
 C         2.642150         1.439811         0.119430
 O         1.889927         0.651555         1.028210
 H         0.124462        -1.459251         1.150912
 H        -0.704697        -0.029013         0.828018
 H        -0.481183        -1.153167        -0.528772
 H         2.858805        -1.333545         0.228880
 H         2.312269        -1.496629        -1.480560
 H         5.432683         1.092997        -0.580059
 H         5.040125        -0.640189        -0.141466
 H         5.319178        -0.263755        -1.849794
 H         0.891780         1.858850        -1.528109
 H         3.105166         2.320157         0.519507
