19
Iteration:  4287
 C        -0.068561        -0.635576         0.068334
 C         1.318796        -0.095183        -0.018174
 C         2.529417        -0.947435        -0.481974
 C         3.426152         0.354123        -0.751578
 C         4.828637         0.281154        -1.036622
 O         2.622784         0.772521        -1.891549
 C         1.667425         1.218307        -0.921354
 C         2.696085         1.371690         0.121263
 O         1.853356         0.650919         1.142394
 H        -0.097529        -1.621697         0.655231
 H        -0.570227         0.225987         0.566785
 H        -0.438286        -0.855610        -0.939484
 H         2.895608        -1.707642         0.236540
 H         2.411024        -1.397949        -1.456803
 H         5.227666         1.141373        -1.524638
 H         5.341618         0.189587         0.018301
 H         5.063179        -0.710096        -1.494086
 H         0.991725         1.964125        -1.204370
 H         3.123080         2.264568         0.463254
