19
Iteration:  2891charge 0 multiplicity 1
 C        -0.151108        -0.544024         0.049444
 C         1.342804        -0.094886        -0.038725
 C         2.572084        -1.002198        -0.385785
 C         3.405244         0.220702        -0.816414
 C         4.878975         0.251617        -1.073460
 O         2.651321         0.769599        -1.930118
 C         1.696750         1.180380        -0.943870
 C         2.704945         1.380656         0.190918
 O         1.823682         0.728875         1.186127
 H        -0.263997        -1.338499         0.870799
 H        -0.779574         0.310856         0.278311
 H        -0.417006        -0.930783        -0.917706
 H         2.793502        -1.502887         0.530941
 H         2.177457        -1.686638        -1.088176
 H         4.963021         1.233656        -1.533476
 H         5.769447         0.245257        -0.378418
 H         5.157946        -0.510138        -1.850286
 H         1.040317         1.909170        -1.305416
 H         2.908241         2.416616         0.605816
