19
Iteration:   523charge 0 multiplicity 1
 C        -0.059292        -0.717546         0.032431
 C         1.222208        -0.037536        -0.116707
 C         2.508014        -0.836358        -0.468269
 C         3.425888         0.252063        -0.752946
 C         4.878948         0.168885        -1.114315
 O         2.660736         0.907805        -1.852168
 C         1.673378         1.169547        -0.881786
 C         2.702118         1.357051         0.239461
 O         1.840149         0.679449         1.160183
 H         0.030343        -1.355733         0.926731
 H        -1.012850        -0.019435        -0.008809
 H        -0.220063        -1.340016        -0.777468
 H         2.842254        -1.412334         0.518509
 H         2.575403        -1.587969        -1.170268
 H         5.232213         1.185338        -1.123458
 H         5.590704        -0.518913        -0.564568
 H         4.948389         0.045438        -2.180688
 H         0.890992         1.887291        -1.149793
 H         3.234057         2.284358         0.443851
