19
Iteration:   422
 C        -0.043015        -0.726190         0.137461
 C         1.272753        -0.057923        -0.102364
 C         2.484588        -0.908539        -0.499737
 C         3.404203         0.274806        -0.885667
 C         4.902500         0.229580        -0.996785
 O         2.677293         0.886599        -1.935616
 C         1.694705         1.236123        -0.884482
 C         2.632589         1.378440         0.243413
 O         1.857761         0.656254         1.117351
 H         0.050290        -1.669413         0.715701
 H        -0.711923         0.023974         0.575031
 H        -0.595960        -0.969883        -0.804621
 H         2.769706        -1.655796         0.247442
 H         2.260488        -1.578255        -1.398473
 H         5.364563         1.076489        -1.514907
 H         5.274306         0.356097        -0.017385
 H         5.290339        -0.758517        -1.329327
 H         0.819403         1.909258        -1.001694
 H         3.082863         2.302463         0.565317
