19
Iteration:  4603charge 0 multiplicity 1
 C        -0.119804        -0.698865         0.113223
 C         1.296890        -0.059910        -0.094287
 C         2.536218        -0.962110        -0.405215
 C         3.396476         0.304385        -0.784587
 C         4.846615         0.231465        -0.996378
 O         2.610915         0.900636        -1.980651
 C         1.700955         1.269753        -0.932155
 C         2.716223         1.318431         0.162546
 O         1.883703         0.640466         1.150764
 H        -0.166730        -1.125428         1.101966
 H        -0.866496         0.131199        -0.131826
 H        -0.266044        -1.590711        -0.532259
 H         2.819570        -1.392999         0.589220
 H         2.467103        -1.659814        -1.242034
 H         5.615311         1.076909        -0.865175
 H         5.336203        -0.677005        -0.537431
 H         4.943389         0.031828        -2.093962
 H         1.007748         2.206755        -1.100570
 H         3.054997         2.339290         0.422249
