19
Iteration:  4422
 C        -0.023398        -0.544122         0.114194
 C         1.307527         0.014335        -0.060776
 C         2.515928        -0.912701        -0.489463
 C         3.455505         0.300798        -0.755382
 C         4.882160         0.281842        -1.071273
 O         2.613385         0.796862        -1.894567
 C         1.609673         1.137792        -0.975771
 C         2.678722         1.323970         0.254746
 O         1.850628         0.580944         1.167065
 H        -0.171489        -1.111132         0.994311
 H        -0.905475         0.192293        -0.012426
 H        -0.232155        -1.100691        -0.838728
 H         2.841838        -1.499661         0.411035
 H         2.408850        -1.658708        -1.354111
 H         5.166056         1.297201        -1.596298
 H         5.591140         0.191024        -0.266988
 H         5.055088        -0.527632        -1.819215
 H         0.783769         1.580444        -1.662582
 H         3.267092         2.200450         0.688534
