19
Iteration:  2470charge 0 multiplicity 1
 C        -0.034436        -0.537620         0.275389
 C         1.279579        -0.132028        -0.109899
 C         2.451913        -0.960228        -0.536370
 C         3.378279         0.246109        -0.830989
 C         4.846589         0.203660        -0.863522
 O         2.675022         0.923818        -1.973966
 C         1.654504         1.314673        -0.990238
 C         2.721105         1.330191         0.094308
 O         1.853872         0.533557         1.082575
 H         0.119334        -1.598337         0.814271
 H        -0.220616         0.228553         1.038312
 H        -0.823143        -0.619836        -0.542929
 H         2.887362        -1.503488         0.417409
 H         2.430017        -1.597189        -1.373390
 H         5.148457         1.293087        -0.975899
 H         5.391640        -0.097990         0.054187
 H         5.222650        -0.323675        -1.696236
 H         0.822605         1.914195        -1.245270
 H         3.328767         2.239614         0.387573
