19
Iteration:  4540
 C        -0.094171        -0.599327         0.170614
 C         1.293908        -0.042922        -0.112704
 C         2.567301        -0.941115        -0.419597
 C         3.410256         0.327727        -0.782876
 C         4.918859         0.250276        -1.077326
 O         2.619764         0.819031        -1.877741
 C         1.638986         1.239196        -1.008816
 C         2.676163         1.329732         0.216985
 O         1.883377         0.592456         1.094016
 H        -0.096068        -1.340735         0.949104
 H        -0.894792         0.250241         0.365230
 H        -0.433600        -1.001653        -0.841650
 H         2.939557        -1.421758         0.499311
 H         2.489516        -1.777115        -1.153800
 H         5.330024         1.315307        -0.920793
 H         5.233680        -0.475445        -0.319392
 H         4.910825        -0.175280        -2.089037
 H         0.785214         1.888754        -1.396307
 H         3.095824         2.223606         0.700716
