19
Iteration:  4584charge 0 multiplicity 1
 C        -0.089343        -0.589522         0.093293
 C         1.296431        -0.055023         0.030649
 C         2.536744        -0.959561        -0.383728
 C         3.348413         0.206682        -0.883271
 C         4.932015         0.263029        -1.136588
 O         2.696275         0.909200        -1.872634
 C         1.616511         1.152694        -0.952279
 C         2.633055         1.333652         0.205687
 O         1.877066         0.653407         1.139178
 H        -0.301349        -0.916561         1.062274
 H        -0.698581         0.286166        -0.351522
 H        -0.119904        -1.409308        -0.671911
 H         2.797749        -1.531457         0.498090
 H         2.213073        -1.653997        -1.192265
 H         5.145503         1.275909        -0.574282
 H         5.475209        -0.474696        -0.570789
 H         5.236543         0.388883        -2.185603
 H         0.824022         1.625329        -1.574220
 H         3.311786         2.018494         0.704845
