19
Iteration:  1675
 C        -0.045870        -0.602689         0.159756
 C         1.332649        -0.051934        -0.007930
 C         2.503156        -0.907319        -0.469651
 C         3.432030         0.255284        -0.837728
 C         4.883333         0.230656        -0.992959
 O         2.585340         0.877509        -1.998738
 C         1.684614         1.160903        -1.024259
 C         2.663467         1.354578         0.205823
 O         1.849847         0.631399         1.153350
 H        -0.094069        -1.384314         0.943072
 H        -0.763821         0.270305         0.244296
 H        -0.326153        -1.048125        -0.793770
 H         2.973024        -1.446493         0.481616
 H         2.274346        -1.656385        -1.157018
 H         5.298462         1.194847        -0.933163
 H         5.316467        -0.219222        -0.028290
 H         5.261307        -0.329568        -1.828204
 H         0.811047         1.763221        -1.319165
 H         3.186841         2.273886         0.605499
