19
Iteration:  1914charge 0 multiplicity 1
 C        -0.025557        -0.728390        -0.019615
 C         1.348283        -0.051868         0.037976
 C         2.501502        -0.888690        -0.441872
 C         3.355380         0.331922        -0.796478
 C         4.750190         0.117825        -1.139964
 O         2.702780         0.903261        -1.880917
 C         1.681890         1.249873        -0.935795
 C         2.742088         1.402182         0.222787
 O         1.834885         0.657812         1.206331
 H        -0.154385        -1.615023         0.575032
 H        -0.791527        -0.140336         0.494670
 H        -0.290369        -0.812206        -1.022395
 H         2.896670        -1.560142         0.458759
 H         2.353157        -1.570405        -1.227459
 H         5.025014         0.933804        -1.741673
 H         5.410550         0.073094        -0.229678
 H         4.740013        -0.777131        -1.717243
 H         0.905015         1.924654        -1.380929
 H         3.403507         2.212768         0.557808
