19
Iteration:  1549charge 0 multiplicity 1
 C        -0.094378        -0.521675        -0.052380
 C         1.309327        -0.068803        -0.051034
 C         2.684912        -0.952962        -0.376965
 C         3.421722         0.288478        -0.765064
 C         4.844461         0.219309        -1.136638
 O         2.606843         0.736736        -1.893381
 C         1.571390         1.131987        -0.857763
 C         2.657652         1.462627         0.241229
 O         1.874626         0.700319         1.164741
 H        -0.247641        -1.281809         0.754232
 H        -0.783199         0.271283         0.188460
 H        -0.315240        -1.216349        -0.941640
 H         3.000444        -1.622563         0.292870
 H         2.502861        -1.556945        -1.359996
 H         5.152231         1.065726        -1.872923
 H         5.348859         0.257222        -0.136769
 H         5.183640        -0.761658        -1.556386
 H         0.720833         1.714226        -1.205042
 H         3.334650         2.265810         0.576223
