19
Iteration:  1804
 C         0.003209        -0.662814         0.303007
 C         1.295479        -0.103655        -0.082055
 C         2.499446        -0.948316        -0.569883
 C         3.378661         0.256780        -0.804087
 C         4.887808         0.225147        -0.791141
 O         2.618594         0.962999        -2.042228
 C         1.634127         1.313702        -1.016316
 C         2.729500         1.265171         0.120908
 O         1.818625         0.656904         1.062484
 H         0.220380        -1.381482         1.154255
 H        -0.588058         0.183332         0.797786
 H        -0.484151        -1.131034        -0.489689
 H         2.842467        -1.669232         0.272095
 H         2.187096        -1.470927        -1.462999
 H         5.368254         1.145513        -0.941467
 H         5.355995        -0.425665         0.011820
 H         5.129109        -0.351492        -1.765281
 H         0.661615         1.914145        -1.282416
 H         3.512155         1.956864         0.535552
