19
Iteration:  2650charge 0 multiplicity 1
 C        -0.042430        -0.657546         0.249201
 C         1.357409        -0.088308         0.058211
 C         2.475306        -0.908356        -0.559980
 C         3.378882         0.292167        -0.813784
 C         4.835554         0.106672        -0.766540
 O         2.623411         0.934506        -2.021277
 C         1.697100         1.245182        -1.068566
 C         2.667844         1.387392         0.073591
 O         1.933873         0.678667         1.077128
 H         0.075576        -1.670171         0.610829
 H        -0.558877        -0.032931         1.097109
 H        -0.759392        -0.604028        -0.589547
 H         2.769923        -1.798191        -0.024104
 H         2.094851        -1.458674        -1.504641
 H         5.254435         1.033195        -1.046391
 H         5.201281        -0.302243         0.204515
 H         5.031742        -0.654185        -1.536230
 H         0.709689         1.651005        -1.342401
 H         3.177670         2.341424         0.256084
