19
Iteration:  2536
 C        -0.043831        -0.666486         0.048366
 C         1.357550        -0.012230        -0.046583
 C         2.556383        -0.890424        -0.422322
 C         3.328539         0.324844        -0.862945
 C         4.773429         0.040910        -1.073286
 O         2.645160         0.900335        -1.961719
 C         1.683439         1.296173        -0.894577
 C         2.726570         1.401043         0.222476
 O         1.842399         0.629445         1.178252
 H         0.002703        -1.176581         1.119381
 H        -0.960433        -0.076239        -0.128773
 H        -0.179386        -1.642580        -0.570937
 H         2.944020        -1.344345         0.560701
 H         2.442833        -1.553815        -1.271782
 H         5.198987         1.077405        -1.275350
 H         5.204442        -0.223295        -0.081586
 H         5.032118        -0.770613        -1.744786
 H         0.888434         1.961661        -1.306497
 H         3.382039         2.187592         0.669463
