19
Iteration:  1874charge 0 multiplicity 1
 C        -0.056724        -0.624630        -0.064423
 C         1.325621        -0.059839        -0.006104
 C         2.598490        -0.920971        -0.373535
 C         3.380416         0.276251        -0.912207
 C         4.878674         0.141669        -1.194741
 O         2.619395         0.814226        -1.909905
 C         1.635273         1.249566        -0.868912
 C         2.689018         1.421569         0.321972
 O         1.789845         0.679871         1.252297
 H        -0.202912        -1.336972         0.769078
 H        -0.729377         0.217813         0.101004
 H        -0.372488        -1.140021        -1.102440
 H         3.146911        -1.280083         0.461361
 H         2.404084        -1.719800        -1.111555
 H         5.395225         1.211102        -1.361292
 H         5.454055        -0.468875        -0.448421
 H         5.144181        -0.363740        -2.129564
 H         0.872363         1.842713        -1.254706
 H         3.268368         2.165193         0.871730
