19
Iteration:  1786charge 0 multiplicity 1
 C        -0.028127        -0.706443         0.275076
 C         1.292257        -0.073052        -0.127882
 C         2.452298        -0.963880        -0.577917
 C         3.386902         0.257646        -0.865331
 C         4.859828         0.126862        -0.899034
 O         2.659942         0.948050        -1.921514
 C         1.656618         1.219512        -0.971136
 C         2.645872         1.431942         0.122727
 O         1.926822         0.690178         1.116706
 H         0.181810        -1.566072         0.881977
 H        -0.656057         0.068114         0.666237
 H        -0.556804        -1.253573        -0.624139
 H         2.847368        -1.587754         0.245472
 H         2.371987        -1.492375        -1.495707
 H         5.255551         1.201988        -1.069929
 H         4.999209        -0.065520         0.208294
 H         5.315073        -0.596648        -1.520807
 H         1.005112         1.982014        -1.221100
 H         3.005178         2.425619         0.412576
