19
Iteration:  4730charge 0 multiplicity 1
 C        -0.188233        -0.592081         0.022882
 C         1.264488        -0.085238        -0.044517
 C         2.529534        -1.014436        -0.386828
 C         3.408783         0.319721        -0.815463
 C         4.915458         0.295013        -1.048378
 O         2.654621         0.865638        -1.941332
 C         1.628085         1.321094        -0.966873
 C         2.691112         1.266355         0.176716
 O         1.932884         0.574090         1.227561
 H        -0.161798        -1.424568         0.810421
 H        -0.752742         0.167823         0.497104
 H        -0.594082        -0.718617        -0.950168
 H         2.989795        -1.563859         0.477631
 H         2.436782        -1.655508        -1.268511
 H         5.231178         1.147577        -1.588852
 H         5.555406         0.183371        -0.151046
 H         5.091196        -0.632469        -1.634938
 H         0.881285         1.932947        -1.396459
 H         3.275317         2.234147         0.468594
