19
Iteration:  3084
 C        -0.090021        -0.630332        -0.042179
 C         1.324502        -0.058941         0.069665
 C         2.481199        -0.893453        -0.297410
 C         3.465304         0.260273        -0.768020
 C         4.883019         0.189228        -1.125682
 O         2.581419         0.833122        -1.955873
 C         1.650787         1.223996        -0.932837
 C         2.751617         1.307379         0.184914
 O         1.843215         0.689776         1.171916
 H        -0.380611        -1.339168         0.739549
 H        -0.772868         0.311332        -0.009408
 H        -0.039608        -0.996063        -1.074958
 H         3.036665        -1.318431         0.565489
 H         2.532391        -1.564281        -1.231593
 H         5.162695         1.088755        -1.591223
 H         5.576050         0.028508        -0.346151
 H         5.028213        -0.661030        -1.841481
 H         0.773725         1.902838        -1.161432
 H         3.033062         2.236105         0.530796
