19
Iteration:  2032charge 0 multiplicity 1
 C        -0.075251        -0.618114         0.046492
 C         1.303412        -0.059801        -0.072700
 C         2.547584        -0.933555        -0.377165
 C         3.416518         0.293178        -0.813232
 C         4.884598         0.169437        -1.218866
 O         2.608393         0.930223        -1.869811
 C         1.701745         1.265777        -0.895990
 C         2.668014         1.339584         0.275669
 O         1.838410         0.584226         1.137156
 H        -0.149725        -1.277290         0.982990
 H        -0.902572         0.161473         0.238109
 H        -0.192534        -1.148223        -0.871804
 H         2.761533        -1.446192         0.572464
 H         2.437424        -1.676740        -1.132114
 H         5.433598         1.076968        -1.149607
 H         5.380012        -0.480406        -0.420072
 H         5.002714        -0.320582        -2.240078
 H         0.950661         2.036027        -1.249428
 H         3.112490         2.202281         0.753635
