19
Iteration:   339charge 0 multiplicity 1
 C        -0.121008        -0.689984         0.073719
 C         1.268335        -0.112155        -0.033135
 C         2.542628        -0.931112        -0.431195
 C         3.431452         0.341589        -0.786405
 C         4.909095         0.228731        -1.058152
 O         2.635877         0.885499        -1.910716
 C         1.683088         1.160053        -0.925451
 C         2.713531         1.366080         0.167780
 O         1.810132         0.663583         1.137023
 H        -0.126168        -1.319787         0.986784
 H        -0.832983         0.234968         0.176676
 H        -0.323781        -1.244206        -0.816751
 H         3.023628        -1.416506         0.522747
 H         2.422544        -1.524945        -1.299030
 H         5.403330         1.182440        -0.875591
 H         5.403243        -0.677720        -0.498015
 H         5.113455         0.191365        -2.122386
 H         0.912784         1.904636        -1.122736
 H         3.082502         2.359136         0.433628
