19
Iteration:  4388charge 0 multiplicity 1
 C        -0.151014        -0.706806         0.118554
 C         1.288573        -0.062966        -0.023754
 C         2.565560        -0.946727        -0.419567
 C         3.424704         0.240229        -0.824668
 C         4.935583         0.226682        -1.042599
 O         2.581540         0.911792        -1.961761
 C         1.704723         1.218286        -0.938440
 C         2.731742         1.327876         0.216348
 O         1.831427         0.697305         1.129340
 H        -0.382367        -1.242142         0.999956
 H        -0.863546         0.209300         0.043332
 H        -0.243631        -1.422065        -0.746535
 H         3.029093        -1.312814         0.537568
 H         2.412208        -1.786892        -1.151111
 H         5.212862         1.339237        -0.893010
 H         5.380018        -0.449126        -0.339090
 H         5.084908        -0.020862        -2.104482
 H         0.856198         1.925715        -1.310046
 H         3.250421         2.290345         0.343006
