19
Iteration:  3736charge 0 multiplicity 1
 C        -0.107715        -0.776438        -0.020868
 C         1.253920        -0.079346         0.012001
 C         2.633190        -0.887761        -0.384904
 C         3.420429         0.275981        -0.739786
 C         4.812297         0.072554        -1.108628
 O         2.598772         1.014866        -1.972925
 C         1.676449         1.303956        -0.892988
 C         2.737125         1.359004         0.181196
 O         1.827022         0.677244         1.196344
 H        -0.214022        -1.552121         0.708340
 H        -0.948988        -0.067950         0.098716
 H        -0.317889        -1.191147        -0.955791
 H         2.941464        -1.442048         0.539213
 H         2.604656        -1.655852        -1.134018
 H         5.575101         0.952099        -1.135162
 H         5.461117        -0.521269        -0.565549
 H         4.982746        -0.368024        -2.135288
 H         1.011553         2.195613        -1.107946
 H         3.320681         2.204782         0.655584
