19
Iteration:  4750
 C        -0.036766        -0.562462         0.108228
 C         1.326080        -0.088487        -0.080528
 C         2.502954        -0.873918        -0.468323
 C         3.440833         0.234884        -0.777876
 C         4.844498         0.201160        -1.077290
 O         2.609461         0.882885        -1.925165
 C         1.667862         1.185691        -0.882309
 C         2.695622         1.361611         0.292727
 O         1.818171         0.604096         1.047266
 H        -0.043813        -1.317816         0.980916
 H        -0.734076         0.181549         0.197017
 H        -0.235118        -1.058856        -0.830271
 H         2.891883        -1.417189         0.413635
 H         2.472655        -1.533103        -1.333209
 H         5.222326         1.188915        -1.200806
 H         5.344180        -0.195005        -0.149490
 H         5.297137        -0.493496        -1.857258
 H         0.916056         1.844358        -1.077165
 H         3.072674         2.340456         0.615483
