19
Iteration:   136charge 0 multiplicity 1
 C        -0.004119        -0.672540         0.237040
 C         1.327325        -0.131052        -0.112846
 C         2.453044        -1.016966        -0.566927
 C         3.368458         0.302289        -0.811900
 C         4.866383         0.260159        -0.926186
 O         2.689078         0.954801        -1.920806
 C         1.713889         1.237810        -1.011186
 C         2.595920         1.378500         0.212868
 O         1.849391         0.609018         1.086654
 H         0.099921        -1.487469         0.934642
 H        -0.550693         0.162510         0.672366
 H        -0.386556        -0.940135        -0.722270
 H         2.731102        -1.746141         0.165286
 H         2.147283        -1.610541        -1.449082
 H         5.263217         0.224095        -1.932479
 H         5.332279         1.148652        -0.484810
 H         5.153621        -0.588812        -0.324600
 H         0.923875         2.016186        -1.176985
 H         3.162588         2.336711         0.499684
