19
Iteration:  2344
 C        -0.030380        -0.611968         0.237890
 C         1.263518        -0.072548        -0.110287
 C         2.455193        -0.922771        -0.623467
 C         3.378728         0.296059        -0.786255
 C         4.874922         0.143226        -0.915003
 O         2.634501         0.965492        -1.932245
 C         1.688024         1.234909        -0.945343
 C         2.686981         1.332529         0.185556
 O         1.905139         0.582800         1.118041
 H         0.190964        -1.073658         1.235649
 H        -0.863385         0.195036         0.234685
 H        -0.279974        -1.390638        -0.532084
 H         2.852059        -1.619487         0.012534
 H         2.281272        -1.379045        -1.660760
 H         5.365318         1.133641        -1.073761
 H         5.228615        -0.439753        -0.069610
 H         5.224361        -0.494733        -1.821491
 H         0.853642         2.015247        -1.160368
 H         3.051818         2.323530         0.435430
