19
Iteration:   677charge 0 multiplicity 1
 C        -0.010641        -0.632258         0.059933
 C         1.335092        -0.100292        -0.051195
 C         2.601642        -0.933947        -0.419065
 C         3.396397         0.262787        -0.801065
 C         4.859624         0.114124        -1.065068
 O         2.657185         0.974399        -1.882743
 C         1.616719         1.266868        -0.927699
 C         2.619045         1.375732         0.196870
 O         1.824858         0.637724         1.128522
 H        -0.151585        -1.337226         0.881228
 H        -0.827056         0.189636         0.142837
 H        -0.180257        -1.296780        -0.820260
 H         2.891648        -1.645605         0.393196
 H         2.354591        -1.524126        -1.301510
 H         5.263428         1.157567        -0.976140
 H         5.364996        -0.555057        -0.372421
 H         4.971179        -0.307304        -2.082919
 H         0.734405         1.850408        -1.138758
 H         3.195372         2.278607         0.523207
