19
Iteration:  2431charge 0 multiplicity 1
 C        -0.049894        -0.586100         0.021594
 C         1.360929        -0.039347        -0.008785
 C         2.516003        -0.885762        -0.413649
 C         3.382735         0.270090        -0.790326
 C         4.880324         0.201743        -1.076241
 O         2.625240         0.793832        -1.985950
 C         1.654258         1.224805        -0.876936
 C         2.716087         1.348126         0.190182
 O         1.837102         0.627755         1.250383
 H        -0.373331        -1.454376         0.425242
 H        -0.715472         0.126728         0.551809
 H        -0.338843        -0.560899        -1.024780
 H         2.949318        -1.604451         0.182617
 H         2.268615        -1.327212        -1.456028
 H         5.316649         1.135154        -1.456795
 H         5.397308        -0.215520        -0.226155
 H         4.962985        -0.470506        -2.015764
 H         0.739171         1.838921        -1.217672
 H         3.215834         2.215389         0.556776
