19
Iteration:  4888charge 0 multiplicity 1
 C        -0.101011        -0.541791         0.092383
 C         1.305772        -0.106086        -0.085438
 C         2.615489        -0.967796        -0.506481
 C         3.413223         0.305836        -0.816936
 C         4.942543         0.298039        -1.006024
 O         2.563565         0.812821        -1.964711
 C         1.684833         1.249795        -0.894402
 C         2.694199         1.261215         0.252032
 O         1.810532         0.613636         1.178801
 H        -0.290297        -1.579785         0.316099
 H        -0.685446         0.262015         0.618248
 H        -0.580777        -0.467541        -0.957999
 H         2.809820        -1.531327         0.389450
 H         2.470961        -1.741493        -1.294053
 H         5.158400         1.143099        -1.640092
 H         5.485218         0.275351        -0.094284
 H         5.052624        -0.608634        -1.597366
 H         1.117469         2.178445        -1.152396
 H         3.157678         2.085006         0.658312
