19
Iteration:  3727charge 0 multiplicity 1
 C        -0.112335        -0.779308         0.000808
 C         1.332089        -0.019598         0.017441
 C         2.606928        -0.973836        -0.450454
 C         3.374625         0.290988        -0.728260
 C         4.914421         0.081577        -1.098747
 O         2.574001         1.007706        -1.960698
 C         1.682858         1.321924        -0.849936
 C         2.734494         1.371849         0.192678
 O         1.814290         0.674032         1.143162
 H        -0.234557        -1.605208         0.773586
 H        -0.897234        -0.019894         0.230188
 H        -0.299433        -1.210924        -0.980553
 H         2.909506        -1.457407         0.559043
 H         2.547047        -1.682473        -1.358343
 H         5.346925         1.205651        -1.097482
 H         5.306045        -0.602959        -0.214908
 H         4.802423        -0.553252        -2.048547
 H         0.925688         2.056283        -1.162131
 H         3.325729         2.283319         0.470399
