19
Iteration:  2296charge 0 multiplicity 1
 C        -0.031392        -0.554330         0.229265
 C         1.348450        -0.030790        -0.086782
 C         2.463218        -0.992660        -0.627509
 C         3.370665         0.222902        -0.805462
 C         4.844588         0.267394        -0.881011
 O         2.636801         0.942405        -1.943478
 C         1.589942         1.222146        -0.933387
 C         2.727622         1.313361         0.117900
 O         1.896152         0.550706         1.106440
 H         0.112800        -1.439551         0.824351
 H        -0.452366         0.208416         0.826482
 H        -0.594118        -0.621153        -0.729310
 H         2.592169        -1.716048         0.321948
 H         2.302826        -1.522058        -1.507512
 H         5.288413         1.270698        -1.214011
 H         5.339226        -0.248575         0.008309
 H         5.253767        -0.375267        -1.649840
 H         0.855245         1.909769        -1.183592
 H         3.359250         2.100875         0.624251
