19
Iteration:  1079
 C        -0.077642        -0.621490         0.108009
 C         1.331845        -0.058740        -0.161521
 C         2.536091        -0.908901        -0.435036
 C         3.428662         0.253067        -0.777025
 C         4.921315         0.209031        -1.106820
 O         2.623070         0.829922        -1.909945
 C         1.649792         1.185205        -0.895783
 C         2.643155         1.367657         0.191411
 O         1.843198         0.688659         1.188020
 H        -0.179545        -1.058704         1.085479
 H        -0.786982         0.279101         0.143765
 H        -0.458301        -1.382729        -0.560158
 H         2.871299        -1.485802         0.363561
 H         2.489879        -1.548209        -1.332004
 H         5.430014         1.181358        -0.914418
 H         5.230883        -0.469398        -0.265917
 H         5.109546        -0.162027        -2.114231
 H         0.844105         1.722695        -1.318979
 H         3.133443         2.350986         0.476572
