19
Iteration:    13charge 0 multiplicity 1
 C        -0.082857        -0.669241        -0.031990
 C         1.333046        -0.159818        -0.085776
 C         2.522491        -0.970255        -0.466772
 C         3.377384         0.334259        -0.817349
 C         4.823581         0.281782        -1.067159
 O         2.714861         0.934284        -1.882709
 C         1.692531         1.301825        -0.844302
 C         2.757225         1.379955         0.176838
 O         1.734257         0.535080         1.232046
 H        -0.012230        -1.349614         0.812109
 H        -0.683093         0.219144         0.390521
 H        -0.553690        -1.105051        -0.785872
 H         2.935646        -1.668736         0.290914
 H         2.388402        -1.489014        -1.339549
 H         5.180934        -0.454622        -0.420217
 H         4.957535        -0.141514        -2.158676
 H         5.354173         1.169614        -0.962952
 H         0.978274         2.025291        -1.155812
 H         3.527594         2.136979         0.473971
