19
Iteration:  3800
 C        -0.159358        -0.619785         0.174699
 C         1.310620        -0.062338        -0.051031
 C         2.475182        -0.953025        -0.488347
 C         3.423130         0.282112        -0.882353
 C         4.942859         0.267194        -1.047358
 O         2.712047         0.927224        -1.917601
 C         1.646510         1.183860        -0.945795
 C         2.726661         1.318322         0.150013
 O         1.828214         0.590545         1.166209
 H        -0.145671        -1.458432         0.841785
 H        -0.845946         0.242085         0.462362
 H        -0.579133        -0.943165        -0.787960
 H         2.845769        -1.537087         0.352690
 H         2.414167        -1.597394        -1.303013
 H         5.227672         1.297126        -0.800890
 H         5.275803        -0.190676        -0.156155
 H         5.008707        -0.401180        -1.892490
 H         0.845174         1.965126        -1.181298
 H         3.268946         2.176823         0.656138
