19
Iteration:  4367
 C         0.017814        -0.683447         0.146947
 C         1.293832        -0.042780        -0.020538
 C         2.477928        -0.897082        -0.431699
 C         3.461591         0.364793        -0.843534
 C         5.009731         0.139097        -1.047037
 O         2.676932         0.851709        -1.964353
 C         1.567745         1.175218        -0.890758
 C         2.583745         1.362958         0.139050
 O         1.775682         0.695980         1.160091
 H         0.117662        -1.285702         0.979970
 H        -0.829960         0.067852         0.357966
 H        -0.189040        -1.310219        -0.750959
 H         2.895076        -1.700153         0.233357
 H         2.246785        -1.348405        -1.454618
 H         5.541045         1.097010        -0.639005
 H         5.115989        -0.690810        -0.415384
 H         5.133372         0.025110        -2.126025
 H         0.870820         1.974268        -1.341169
 H         3.247548         2.220543         0.487014
