19
Iteration:  2367charge 0 multiplicity 1
 C        -0.019271        -0.704146         0.110349
 C         1.303291        -0.051226        -0.097753
 C         2.531299        -0.937059        -0.502894
 C         3.404447         0.296631        -0.797917
 C         4.865685         0.083882        -1.102264
 O         2.665148         0.953779        -1.874053
 C         1.671637         1.325526        -0.900911
 C         2.685879         1.400026         0.268480
 O         1.805261         0.640973         1.162236
 H        -0.103901        -1.125914         1.177720
 H        -0.841589         0.107995        -0.128028
 H        -0.202738        -1.438249        -0.689406
 H         2.754322        -1.574501         0.271270
 H         2.234899        -1.554329        -1.422366
 H         5.343393         0.970598        -1.504162
 H         5.334849        -0.456585        -0.273264
 H         4.919475        -0.694635        -1.972405
 H         0.744247         1.907011        -1.264378
 H         3.319477         2.222084         0.566498
