19
Iteration:  4702
 C        -0.082006        -0.572669         0.040785
 C         1.350759        -0.009644        -0.016007
 C         2.498710        -0.977570        -0.512065
 C         3.430457         0.269063        -0.823591
 C         4.886554         0.284498        -0.976124
 O         2.595294         0.833500        -1.857623
 C         1.613696         1.183271        -0.925371
 C         2.728927         1.312817         0.210058
 O         1.868432         0.620029         1.122342
 H        -0.124298        -1.601997         0.300621
 H        -0.574257         0.137705         0.829182
 H        -0.629247        -0.311715        -0.930996
 H         2.858718        -1.594818         0.318323
 H         2.250190        -1.587248        -1.403356
 H         5.078160         1.005311        -1.870634
 H         5.553749         0.580579        -0.167663
 H         5.289059        -0.682847        -1.311406
 H         0.677140         1.676074        -1.449021
 H         3.418416         2.076927         0.573487
