19
Iteration:  2152
 C        -0.109032        -0.517662         0.324534
 C         1.297192        -0.113863        -0.188161
 C         2.403858        -0.945223        -0.625756
 C         3.443935         0.343468        -0.848054
 C         4.954642         0.295567        -0.827936
 O         2.640804         0.911453        -2.004564
 C         1.613566         1.239563        -0.847704
 C         2.735560         1.282050         0.141311
 O         1.869522         0.467724         1.059419
 H         0.159232        -1.158860         1.211420
 H        -0.734398         0.303800         0.762048
 H        -0.675668        -1.061951        -0.367789
 H         2.631524        -1.727742         0.084237
 H         2.406528        -1.342058        -1.666610
 H         5.387667         1.262754        -1.023391
 H         5.431125        -0.347051         0.015685
 H         5.351255        -0.215961        -1.795895
 H         0.823515         1.984247        -1.119869
 H         3.318322         2.059304         0.564308
