19
Iteration:  4673charge 0 multiplicity 1
 C        -0.096012        -0.713923         0.174526
 C         1.251191        -0.051184        -0.075324
 C         2.521163        -0.872759        -0.503106
 C         3.481422         0.325114        -0.827126
 C         4.875238         0.149412        -0.941159
 O         2.625842         0.902723        -1.985523
 C         1.717869         1.280714        -0.935759
 C         2.645749         1.388750         0.216993
 O         1.855953         0.578112         1.102717
 H        -0.118847        -1.759243         0.544297
 H        -0.495471        -0.010381         0.879093
 H        -0.829052        -0.749900        -0.641737
 H         2.830040        -1.405023         0.393014
 H         2.406977        -1.593194        -1.335557
 H         5.160341         0.802559        -1.781022
 H         5.553016         0.390619        -0.121695
 H         5.180984        -0.852510        -1.359333
 H         1.023479         1.984275        -1.229896
 H         3.162496         2.262440         0.556113
