19
Iteration:  4218
 C        -0.008935        -0.676884         0.117630
 C         1.324580        -0.007467        -0.079146
 C         2.496384        -0.941498        -0.476837
 C         3.382933         0.296021        -0.676134
 C         4.909719         0.215344        -1.095560
 O         2.646976         0.855995        -1.912103
 C         1.664351         1.225857        -1.038706
 C         2.607463         1.375481         0.207496
 O         1.844757         0.656211         1.181753
 H         0.055277        -1.375079         1.092111
 H        -0.843102         0.022450         0.200859
 H        -0.233533        -1.507848        -0.614069
 H         2.694477        -1.641209         0.299802
 H         2.413476        -1.428253        -1.465970
 H         5.256381         1.131524        -1.663380
 H         5.434725         0.100806        -0.111700
 H         5.004515        -0.751471        -1.587758
 H         0.941086         1.980484        -1.462626
 H         3.232734         2.269870         0.587005
