19
Iteration:   155
 C        -0.112590        -0.652851         0.143394
 C         1.298820        -0.073670        -0.041852
 C         2.541695        -0.880688        -0.531086
 C         3.421293         0.241469        -0.838739
 C         4.942148         0.216970        -0.945565
 O         2.699546         0.958529        -1.979639
 C         1.538188         1.200841        -0.943396
 C         2.702808         1.314497         0.148052
 O         1.830018         0.593602         1.178092
 H         0.000871        -1.410820         0.945966
 H        -0.823531         0.175039         0.565363
 H        -0.508497        -1.141193        -0.697568
 H         2.942035        -1.524742         0.334682
 H         2.421833        -1.441588        -1.399021
 H         5.115817         0.445522        -1.967631
 H         5.415445         1.124932        -0.343727
 H         5.420809        -0.667100        -0.678428
 H         0.751128         1.815028        -1.360864
 H         3.145514         2.225799         0.623548
