19
Iteration:   855
 C        -0.046553        -0.660459         0.046054
 C         1.288584        -0.124380        -0.042759
 C         2.556660        -0.912073        -0.375069
 C         3.489409         0.348602        -0.720436
 C         4.861169         0.089487        -1.121239
 O         2.678836         0.952550        -1.889123
 C         1.637177         1.207596        -0.907492
 C         2.636963         1.361489         0.174844
 O         1.814716         0.689518         1.107666
 H        -0.026250        -1.234113         1.016442
 H        -0.768011         0.104009         0.056975
 H        -0.227303        -1.318381        -0.928623
 H         2.759480        -1.521773         0.496328
 H         2.415663        -1.494781        -1.366760
 H         5.336626         1.116468        -1.274471
 H         5.216608        -0.592369        -0.355249
 H         4.708312        -0.373483        -2.134854
 H         0.812214         1.923258        -1.081487
 H         3.140774         2.235393         0.523275
