19
Iteration:  1419
 C        -0.016356        -0.613941         0.187948
 C         1.270878        -0.016696        -0.028231
 C         2.527647        -0.844798        -0.481478
 C         3.414686         0.287579        -0.791891
 C         4.935991         0.217863        -1.011856
 O         2.612174         0.749021        -1.905608
 C         1.675459         1.200972        -0.958614
 C         2.700102         1.305269         0.145726
 O         1.791625         0.689070         1.079398
 H        -0.174127        -1.340560         0.998598
 H        -0.945907        -0.137598         0.153602
 H        -0.333436        -1.198780        -0.720858
 H         2.736526        -1.295838         0.473456
 H         2.591509        -1.673627        -1.367921
 H         5.287689         1.302964        -1.055063
 H         5.404255        -0.260320        -0.236365
 H         5.022008        -0.252268        -1.982727
 H         1.007874         2.025663        -1.215351
 H         3.183584         2.219518         0.522840
