19
Iteration:  1536charge 0 multiplicity 1
 C        -0.166120        -0.610114        -0.010001
 C         1.311304        -0.106469        -0.041309
 C         2.554321        -0.966249        -0.383709
 C         3.427713         0.282839        -0.808828
 C         4.927495         0.241264        -1.130115
 O         2.594131         0.781485        -1.878395
 C         1.698556         1.180317        -0.952829
 C         2.634858         1.354035         0.168040
 O         1.900344         0.733678         1.278652
 H        -0.183712        -1.357816         0.774626
 H        -0.884083         0.240983         0.164092
 H        -0.511419        -0.963195        -1.028927
 H         2.924022        -1.462840         0.463229
 H         2.455077        -1.574670        -1.306353
 H         5.174744         1.142576        -1.734258
 H         5.582947         0.473881        -0.166554
 H         5.263977        -0.643563        -1.633549
 H         0.947531         1.818609        -1.310842
 H         3.004807         2.405811         0.379710
