19
Iteration:   877charge 0 multiplicity 1
 C        -0.061848        -0.662456         0.008365
 C         1.305546        -0.037266         0.037510
 C         2.542782        -0.905860        -0.464836
 C         3.444272         0.312980        -0.807589
 C         4.868912         0.070464        -1.157095
 O         2.695833         0.817988        -1.901020
 C         1.651248         1.266047        -0.974829
 C         2.620542         1.460404         0.318264
 O         1.802312         0.665643         1.223322
 H        -0.236437        -1.250084         0.949036
 H        -0.851990         0.014815        -0.134534
 H        -0.144897        -1.456238        -0.857894
 H         2.979956        -1.261745         0.440787
 H         2.683620        -1.554769        -1.365805
 H         5.274420         1.133657        -1.219320
 H         5.445716        -0.612294        -0.546351
 H         4.882323        -0.190575        -2.243761
 H         0.843952         1.899252        -1.382621
 H         3.037668         2.324806         0.786510
