19
Iteration:  2253charge 0 multiplicity 1
 C        -0.103450        -0.656117        -0.003726
 C         1.284657        -0.044212        -0.048343
 C         2.537614        -0.971856        -0.359127
 C         3.427132         0.319411        -0.760487
 C         4.897937         0.073271        -1.225903
 O         2.643431         0.980634        -1.872588
 C         1.596376         1.288421        -0.828795
 C         2.688351         1.321938         0.226125
 O         1.866449         0.649917         1.146115
 H        -0.040921        -1.675375         0.381002
 H        -0.843908        -0.036318         0.457371
 H        -0.516061        -0.864028        -1.080183
 H         3.076588        -1.399621         0.589960
 H         2.493866        -1.676778        -1.097957
 H         5.262891         1.124183        -1.624332
 H         5.645651        -0.193090        -0.379256
 H         5.085971        -0.677415        -2.012462
 H         0.816421         1.946956        -1.071055
 H         3.257982         2.233119         0.561087
