19
Iteration:  1347charge 0 multiplicity 1
 C        -0.050332        -0.658877         0.133028
 C         1.301690        -0.100430        -0.091322
 C         2.544360        -0.928879        -0.443274
 C         3.437881         0.336802        -0.790735
 C         4.950330         0.134126        -0.992681
 O         2.552246         0.799525        -1.997903
 C         1.666687         1.249126        -0.967692
 C         2.674055         1.416833         0.240663
 O         1.842788         0.701726         1.127547
 H        -0.256298        -1.597793         0.659273
 H        -0.771405         0.077305         0.510439
 H        -0.453954        -0.749291        -0.834883
 H         3.050130        -1.423074         0.414833
 H         2.545671        -1.616700        -1.182518
 H         5.152197         0.960980        -1.638725
 H         5.410459         0.273735         0.012699
 H         5.122827        -0.862258        -1.454094
 H         0.872742         2.015192        -1.135366
 H         3.052912         2.351723         0.604916
