19
Iteration:  2798
 C        -0.067150        -0.702141         0.316557
 C         1.251179        -0.006619        -0.100444
 C         2.490248        -0.925127        -0.521943
 C         3.444066         0.301669        -0.835347
 C         4.904816         0.138666        -1.001641
 O         2.727141         0.781952        -1.893091
 C         1.674884         1.243384        -1.044538
 C         2.613353         1.406682         0.191440
 O         1.824478         0.744562         1.095429
 H         0.178957        -1.330430         1.118884
 H        -0.806880        -0.009207         0.659132
 H        -0.503340        -1.254541        -0.548938
 H         2.716394        -1.847411         0.096847
 H         2.372490        -1.338096        -1.539353
 H         5.380511         1.159158        -0.981757
 H         5.257219        -0.313871        -0.078362
 H         5.099541        -0.476421        -1.943465
 H         1.029380         2.031632        -1.551783
 H         3.056889         2.314885         0.571267
