19
Iteration:  2943
 C        -0.056467        -0.625059         0.115517
 C         1.328444        -0.092967        -0.047972
 C         2.553173        -0.913338        -0.432890
 C         3.366810         0.290976        -0.768285
 C         4.892875         0.126604        -1.041431
 O         2.626519         0.822103        -1.977431
 C         1.685799         1.171865        -0.999695
 C         2.627321         1.430286         0.141987
 O         1.841458         0.760594         1.243383
 H        -0.140968        -1.046764         1.090536
 H        -0.855532         0.131461        -0.062639
 H        -0.131337        -1.393781        -0.616950
 H         2.710777        -1.663627         0.339087
 H         2.365555        -1.484800        -1.408691
 H         5.545025         0.953666        -0.905632
 H         5.422755        -0.535724        -0.328038
 H         5.009926        -0.231666        -2.165965
 H         0.969150         1.944245        -1.284260
 H         3.182029         2.182930         0.574412
