19
Iteration:  4186charge 0 multiplicity 1
 C        -0.090728        -0.788764         0.269693
 C         1.305269        -0.029636        -0.108491
 C         2.538391        -0.875227        -0.456607
 C         3.404825         0.304369        -0.824014
 C         4.863546         0.158198        -0.916838
 O         2.667242         0.988356        -1.985190
 C         1.664064         1.235483        -1.047009
 C         2.677551         1.308908         0.084758
 O         1.799350         0.693507         1.139896
 H         0.158420        -1.569341         1.107881
 H        -0.841016        -0.084471         0.562667
 H        -0.356203        -1.374025        -0.637587
 H         2.954819        -1.392590         0.368924
 H         2.511962        -1.525998        -1.338653
 H         5.525354         1.047795        -0.964067
 H         5.209712        -0.548618        -0.110991
 H         5.190791        -0.458961        -1.767340
 H         0.857163         1.978079        -1.184982
 H         3.305893         2.104089         0.553594
