19
Iteration:  4669charge 0 multiplicity 1
 C        -0.111540        -0.739085         0.171082
 C         1.243553        -0.090459        -0.034936
 C         2.529787        -0.851242        -0.519858
 C         3.444606         0.304264        -0.826024
 C         4.873181         0.138163        -0.920382
 O         2.659896         0.942671        -1.959886
 C         1.702913         1.279407        -0.939879
 C         2.706378         1.387155         0.195509
 O         1.852108         0.597098         1.076839
 H        -0.159720        -1.698243         0.629673
 H        -0.618316        -0.032877         0.976444
 H        -0.849304        -0.841830        -0.670592
 H         2.976780        -1.366914         0.354854
 H         2.351574        -1.593446        -1.315280
 H         5.134451         0.822458        -1.841029
 H         5.594524         0.336444        -0.118399
 H         5.023407        -0.845005        -1.413931
 H         0.862912         1.949339        -1.429391
 H         3.170416         2.332733         0.538545
