19
Iteration:  1819charge 0 multiplicity 1
 C        -0.054544        -0.641442         0.332234
 C         1.271443        -0.039777        -0.060918
 C         2.461047        -0.902119        -0.565066
 C         3.408759         0.323235        -0.840366
 C         4.900478         0.223588        -0.931513
 O         2.645883         0.869382        -2.016865
 C         1.728567         1.236581        -1.013603
 C         2.656236         1.334580         0.159092
 O         1.845069         0.552846         1.099682
 H        -0.013192        -1.314747         1.190984
 H        -0.824256         0.049440         0.645191
 H        -0.521981        -1.116600        -0.640714
 H         2.834430        -1.525326         0.247023
 H         2.378712        -1.500333        -1.459592
 H         5.359373         1.256180        -0.619948
 H         5.160685        -0.434192        -0.034858
 H         5.410296        -0.141497        -1.801464
 H         1.230427         2.097731        -1.275865
 H         3.007664         2.289386         0.545945
