19
Iteration:  1339charge 0 multiplicity 1
 C        -0.023207        -0.687622         0.156107
 C         1.333979        -0.043583        -0.046327
 C         2.517298        -0.942530        -0.444208
 C         3.386656         0.234854        -0.773278
 C         4.945351         0.143567        -0.972068
 O         2.620905         0.872745        -1.961351
 C         1.594384         1.262884        -0.977443
 C         2.604851         1.424512         0.140690
 O         1.871360         0.693725         1.094083
 H        -0.077127        -1.667039         0.641051
 H        -0.666779         0.107599         0.692613
 H        -0.408350        -0.829982        -0.884434
 H         2.809398        -1.464829         0.528479
 H         2.253453        -1.664835        -1.336651
 H         5.340486         0.918585        -1.580769
 H         5.624247         0.192017        -0.002253
 H         5.288179        -0.737489        -1.472197
 H         0.818184         1.949839        -1.223041
 H         3.170645         2.265369         0.598550
