19
Iteration:  4100charge 0 multiplicity 1
 C        -0.045505        -0.571140         0.061582
 C         1.263706        -0.051221         0.006023
 C         2.580157        -0.938793        -0.419541
 C         3.416657         0.295061        -0.787826
 C         4.922838         0.286770        -1.137609
 O         2.616418         0.756517        -1.895092
 C         1.664861         1.251543        -0.977575
 C         2.725578         1.315041         0.223845
 O         1.752329         0.646253         1.131449
 H        -0.258429        -1.478135         0.733452
 H        -0.746627         0.190287         0.295326
 H        -0.308061        -1.045300        -0.884019
 H         3.041851        -1.398643         0.483293
 H         2.578290        -1.765058        -1.184961
 H         5.101262         1.305583        -1.541454
 H         5.448452         0.009174        -0.135999
 H         5.041733        -0.507047        -1.905291
 H         0.895560         2.045907        -1.063552
 H         3.305375         1.985152         0.884939
