19
Iteration:   791
 C        -0.125960        -0.576443         0.195964
 C         1.342530        -0.086175        -0.117818
 C         2.506478        -0.976552        -0.646405
 C         3.360166         0.186562        -0.837639
 C         4.884767         0.236719        -0.882669
 O         2.645091         0.908583        -1.887033
 C         1.647247         1.244397        -0.995234
 C         2.605064         1.329270         0.134030
 O         1.975333         0.660907         1.164721
 H         0.026866        -1.517618         0.858652
 H        -0.618005        -0.033719         0.939879
 H        -0.894285        -0.812268        -0.658901
 H         2.700189        -1.710246         0.156339
 H         2.499706        -1.568673        -1.610073
 H         5.175796         1.212598        -1.233676
 H         5.308448         0.301242         0.191106
 H         5.539320        -0.517182        -1.324054
 H         0.860794         1.924755        -1.378704
 H         3.175761         2.151174         0.499193
