19
Iteration:  2312charge 0 multiplicity 1
 C        -0.107983        -0.578753         0.277661
 C         1.227054        -0.160206        -0.134346
 C         2.439465        -0.973070        -0.577155
 C         3.367975         0.268382        -0.873718
 C         4.920661         0.231303        -0.838193
 O         2.629891         0.977807        -1.999265
 C         1.709689         1.300043        -0.971103
 C         2.686653         1.275310         0.178800
 O         1.998863         0.558458         1.091919
 H        -0.065400        -1.358490         1.132800
 H        -0.737344         0.187426         0.898297
 H        -0.741285        -0.929504        -0.566089
 H         2.897814        -1.564998         0.095287
 H         2.257980        -1.636706        -1.520091
 H         5.174792         1.288054        -0.828150
 H         5.067681        -0.125815         0.158870
 H         5.432900        -0.307145        -1.709400
 H         0.900958         2.128605        -1.186613
 H         3.177567         2.213701         0.379114
