19
Iteration:   951
 C        -0.056402        -0.598250         0.255577
 C         1.359225        -0.095289        -0.146332
 C         2.487775        -0.969675        -0.576051
 C         3.411449         0.317737        -0.732968
 C         4.957717         0.259812        -0.848285
 O         2.606771         0.852246        -2.062829
 C         1.634568         1.213214        -0.954920
 C         2.646098         1.375622         0.199294
 O         1.876170         0.599548         1.109379
 H        -0.210642        -1.459872         0.842295
 H        -0.617469         0.167124         0.784791
 H        -0.726747        -0.696514        -0.672666
 H         2.625011        -1.644228         0.239030
 H         2.219844        -1.424151        -1.637701
 H         5.428189         1.214746        -1.426880
 H         5.451716         0.044302         0.021381
 H         5.019131        -0.680930        -1.499663
 H         0.751230         1.885025        -1.089443
 H         3.393454         2.160296         0.423566
