19
Iteration:   483charge 0 multiplicity 1
 C        -0.100097        -0.646396         0.197880
 C         1.319013        -0.068947        -0.085508
 C         2.549718        -0.936911        -0.563744
 C         3.418787         0.252834        -0.789813
 C         4.924475         0.258664        -0.895968
 O         2.601296         0.944972        -1.954039
 C         1.652613         1.194571        -0.943747
 C         2.669075         1.313851         0.102356
 O         1.865276         0.619421         1.126143
 H        -0.228691        -1.347160         1.029538
 H        -0.770062         0.168958         0.536320
 H        -0.557174        -1.077968        -0.762459
 H         2.955830        -1.465691         0.291622
 H         2.397829        -1.526678        -1.530593
 H         5.414681         1.268467        -0.819883
 H         5.267844        -0.449118        -0.110636
 H         5.181919        -0.203223        -1.871087
 H         0.813164         1.829514        -1.208531
 H         3.199787         2.196051         0.521082
