19
Iteration:  4010charge 0 multiplicity 1
 C        -0.010769        -0.712477         0.254956
 C         1.281969        -0.072242        -0.017925
 C         2.389648        -0.931142        -0.531060
 C         3.381673         0.319717        -0.743341
 C         4.847662         0.192497        -0.910438
 O         2.734743         0.946018        -1.957676
 C         1.686402         1.289193        -1.040281
 C         2.622572         1.337379         0.095198
 O         1.888661         0.578572         1.076069
 H         0.125604        -1.555404         1.052556
 H        -0.648796         0.085576         0.684986
 H        -0.538198        -1.069927        -0.660071
 H         2.825345        -1.561364         0.217973
 H         2.135075        -1.342759        -1.509194
 H         5.315001         1.220240        -1.184136
 H         5.467017        -0.061985        -0.035608
 H         5.084244        -0.567960        -1.708810
 H         1.025076         2.019635        -1.470475
 H         3.188774         2.200433         0.520084
