19
Iteration:   685
 C        -0.057118        -0.715508         0.007498
 C         1.399092        -0.037267        -0.087929
 C         2.563225        -0.970592        -0.361882
 C         3.374882         0.264583        -0.767463
 C         4.850439         0.106611        -1.139266
 O         2.605654         0.964942        -1.835284
 C         1.683743         1.300471        -0.932710
 C         2.650094         1.400573         0.175987
 O         1.819425         0.635646         1.156929
 H         0.026149        -1.361417         0.916465
 H        -0.869212         0.143264        -0.038970
 H        -0.380275        -1.317133        -0.748842
 H         3.040190        -1.545203         0.550847
 H         2.298414        -1.387321        -1.274989
 H         5.290125         1.070374        -1.009019
 H         5.402774        -0.558283        -0.324638
 H         5.178404        -0.220191        -2.117315
 H         0.865990         1.936951        -1.319807
 H         3.114514         2.281546         0.583907
