19
Iteration:  1600
 C        -0.064444        -0.777631         0.244894
 C         1.248442        -0.080347        -0.018970
 C         2.478433        -0.908437        -0.507711
 C         3.419327         0.306175        -0.793235
 C         4.877373         0.156656        -0.973852
 O         2.658369         0.887797        -1.914204
 C         1.697825         1.258957        -0.972516
 C         2.717621         1.372563         0.147025
 O         1.813550         0.755995         1.024849
 H         0.035691        -1.612540         0.930880
 H        -0.858997        -0.011920         0.501969
 H        -0.349368        -1.285000        -0.703346
 H         2.902082        -1.555846         0.427804
 H         2.405814        -1.623774        -1.347947
 H         5.289205         1.137115        -1.135325
 H         5.456024        -0.293820        -0.075932
 H         5.088366        -0.405704        -1.839856
 H         0.991325         1.972030        -1.357496
 H         3.333249         2.285694         0.408787
