19
Iteration:  1564charge 0 multiplicity 1
 C        -0.000244        -0.580817         0.031292
 C         1.398048        -0.106113         0.011808
 C         2.572215        -0.911950        -0.374547
 C         3.373062         0.360811        -0.729903
 C         4.881102         0.192716        -1.080135
 O         2.542833         0.793808        -1.935376
 C         1.688553         1.212867        -0.960307
 C         2.652058         1.349653         0.174703
 O         1.826431         0.639697         1.138374
 H        -0.462603        -1.211608         0.815907
 H        -0.703727         0.297629         0.015267
 H        -0.153545        -0.999024        -0.948361
 H         2.997760        -1.365512         0.664075
 H         2.526602        -1.587413        -1.201042
 H         5.119375         0.981917        -1.765826
 H         5.586087         0.166561        -0.291746
 H         4.941245        -0.753324        -1.688851
 H         0.821508         1.901463        -1.256202
 H         2.983518         2.258632         0.628600
