19
Iteration:  1225charge 0 multiplicity 1
 C        -0.045984        -0.592745         0.014407
 C         1.280814        -0.006299        -0.100038
 C         2.540327        -0.902228        -0.386259
 C         3.378201         0.249125        -0.771428
 C         4.974775         0.226869        -1.117513
 O         2.600729         0.772796        -1.907448
 C         1.649505         1.152591        -0.898046
 C         2.722081         1.352318         0.208887
 O         1.788521         0.682997         1.200976
 H         0.006535        -1.025080         1.065975
 H        -0.834063         0.111161         0.038751
 H        -0.367248        -1.407279        -0.681739
 H         2.939773        -1.501220         0.508636
 H         2.349087        -1.541143        -1.186918
 H         5.257382         1.391195        -1.227998
 H         5.560117        -0.257660        -0.367274
 H         5.064770        -0.221898        -2.209372
 H         0.842150         1.950179        -1.300140
 H         3.295933         2.284556         0.359403
