19
Iteration:  2407
 C        -0.051303        -0.633937        -0.061551
 C         1.345468        -0.052493        -0.096938
 C         2.485038        -0.986057        -0.368696
 C         3.387451         0.256588        -0.760115
 C         4.863694         0.127353        -1.215670
 O         2.585814         0.899101        -1.808130
 C         1.711612         1.275826        -0.863459
 C         2.702422         1.400025         0.246616
 O         1.854238         0.689238         1.192847
 H        -0.228395        -1.383696         0.629158
 H        -0.888231        -0.048695         0.210187
 H        -0.211679        -1.080093        -1.073875
 H         3.066883        -1.331817         0.557120
 H         2.586441        -1.790973        -1.117163
 H         5.324498         1.043141        -1.731996
 H         5.416174        -0.223006        -0.377067
 H         4.840340        -0.581952        -2.067609
 H         0.878833         1.871705        -1.319678
 H         3.182568         2.304429         0.674808
