19
Iteration:  2617
 C        -0.117540        -0.592100         0.152265
 C         1.283851        -0.007165        -0.109848
 C         2.507238        -0.892484        -0.458861
 C         3.430993         0.227643        -0.857273
 C         4.894684         0.216141        -0.916924
 O         2.569413         0.821880        -1.952719
 C         1.683491         1.215618        -0.937405
 C         2.727169         1.336067         0.152611
 O         1.908259         0.624336         1.099725
 H         0.007729        -1.427224         0.820218
 H        -0.513549         0.174729         0.931349
 H        -0.754844        -0.861549        -0.714486
 H         2.783053        -1.282358         0.511582
 H         2.335789        -1.670644        -1.334974
 H         5.359444         1.163749        -1.020864
 H         5.288940        -0.257476        -0.000966
 H         5.253467        -0.321736        -1.841445
 H         0.804349         1.848991        -1.285475
 H         3.216964         2.281291         0.371767
