19
Iteration:  3826charge 0 multiplicity 1
 C        -0.059874        -0.606232         0.178780
 C         1.327781        -0.097866        -0.129510
 C         2.455390        -0.942173        -0.550816
 C         3.395654         0.280675        -0.783881
 C         4.862707         0.245518        -0.868284
 O         2.569889         0.901675        -1.991108
 C         1.643287         1.296467        -0.994876
 C         2.728616         1.312548         0.169379
 O         1.958286         0.553319         1.111057
 H        -0.011525        -1.414699         0.948520
 H        -0.487488         0.271510         0.559993
 H        -0.662735        -0.891774        -0.651415
 H         2.739053        -1.610995         0.288006
 H         2.445570        -1.604692        -1.475112
 H         5.158244         1.274666        -1.039483
 H         5.169315         0.148380         0.161047
 H         5.022942        -0.599536        -1.465047
 H         0.983366         2.095953        -1.155692
 H         3.294125         2.015808         0.740357
