19
Iteration:  1958charge 0 multiplicity 1
 C        -0.114918        -0.620744         0.327838
 C         1.248122        -0.091185        -0.107013
 C         2.493948        -0.850660        -0.614983
 C         3.420248         0.347826        -0.830523
 C         4.887397         0.188559        -0.878071
 O         2.602316         0.944554        -1.969724
 C         1.658284         1.259426        -0.980877
 C         2.771543         1.305329         0.114897
 O         1.887681         0.497921         1.080185
 H        -0.037793        -1.410239         1.095509
 H        -0.688342         0.183019         0.805193
 H        -0.502876        -0.940940        -0.603671
 H         3.033729        -1.624151         0.159024
 H         2.452088        -1.367059        -1.525516
 H         5.488241         1.041044        -1.056889
 H         5.128407        -0.004879         0.204306
 H         5.086103        -0.653925        -1.447692
 H         0.825965         1.930081        -1.203260
 H         3.339527         2.139155         0.509934
