19
Iteration:  1611
 C         0.023614        -0.767332         0.252208
 C         1.309325        -0.068983        -0.057935
 C         2.480880        -0.899801        -0.482380
 C         3.383960         0.263551        -0.726569
 C         4.892323         0.172301        -0.953621
 O         2.657587         0.872464        -1.994835
 C         1.698610         1.324789        -1.062596
 C         2.648821         1.356876         0.081289
 O         1.780590         0.707178         1.138156
 H         0.179229        -1.426384         1.093280
 H        -0.717792        -0.040000         0.720357
 H        -0.465860        -1.219293        -0.649218
 H         2.860382        -1.776537         0.271217
 H         2.188051        -1.215022        -1.518567
 H         5.415286         1.112830        -0.975513
 H         5.269563        -0.490816        -0.062072
 H         5.070610        -0.375873        -1.825895
 H         1.069676         2.146118        -1.317479
 H         3.209670         2.272419         0.451281
