19
Iteration:   756
 C        -0.115880        -0.564957         0.130749
 C         1.259977        -0.071002        -0.060588
 C         2.619100        -0.896058        -0.492124
 C         3.383883         0.317276        -0.787662
 C         4.945060         0.169148        -0.981856
 O         2.615030         0.900776        -1.927498
 C         1.610793         1.208718        -0.985325
 C         2.663652         1.333345         0.166098
 O         1.875957         0.549854         1.156375
 H         0.046875        -1.472558         0.750716
 H        -0.674722         0.228678         0.606027
 H        -0.665133        -0.888046        -0.870962
 H         2.941279        -1.360187         0.397973
 H         2.558834        -1.498331        -1.486567
 H         5.348989         1.165804        -1.413842
 H         5.294648        -0.058892        -0.014032
 H         5.247064        -0.633115        -1.704087
 H         0.851765         1.946325        -1.305625
 H         3.136352         2.234416         0.597874
