19
Iteration:  2389charge 0 multiplicity 1
 C        -0.111233        -0.724263        -0.041107
 C         1.260031        -0.035441         0.008148
 C         2.572728        -0.810481        -0.314867
 C         3.456967         0.346755        -0.787673
 C         4.849787         0.068491        -1.221338
 O         2.694021         0.933711        -1.953242
 C         1.668015         1.259205        -0.879142
 C         2.695099         1.298886         0.257585
 O         1.828799         0.637475         1.200218
 H        -0.222042        -1.323295         0.929865
 H        -1.068562         0.011234        -0.032535
 H        -0.296123        -1.315345        -0.931917
 H         2.747134        -1.297520         0.546159
 H         2.394539        -1.595382        -1.139957
 H         5.094347         1.012326        -1.665668
 H         5.422460        -0.332696        -0.360899
 H         4.899210        -0.656790        -2.142654
 H         1.075712         2.247958        -0.997077
 H         3.238352         2.111986         0.679810
