19
Iteration:  3257
 C        -0.096672        -0.698330         0.033969
 C         1.318165        -0.005532        -0.058395
 C         2.556198        -0.941412        -0.422000
 C         3.500642         0.297007        -0.737359
 C         4.980270         0.087317        -1.168358
 O         2.556152         0.851873        -1.925544
 C         1.640262         1.262106        -0.875816
 C         2.611913         1.465701         0.307513
 O         1.828498         0.666627         1.180662
 H        -0.174589        -1.556590         0.630375
 H        -0.872076         0.109357         0.146502
 H        -0.009284        -0.979361        -0.985614
 H         2.833051        -1.653409         0.314287
 H         2.466331        -1.460336        -1.407525
 H         5.187534         0.754684        -2.111248
 H         5.740598         0.237865        -0.397058
 H         4.993225        -0.937632        -1.607270
 H         0.876103         2.037438        -1.208912
 H         3.014763         2.387637         0.691838
