19
Iteration:  2176charge 0 multiplicity 1
 C        -0.089216        -0.568477         0.226240
 C         1.330595        -0.084643        -0.060155
 C         2.551665        -0.961550        -0.559259
 C         3.375670         0.227659        -0.904472
 C         4.786685         0.231215        -0.953422
 O         2.666081         0.997370        -1.957431
 C         1.694317         1.303207        -0.933882
 C         2.584853         1.263506         0.221473
 O         1.921840         0.539580         1.127075
 H        -0.095735        -1.080112         1.210650
 H        -0.868016         0.188773         0.289325
 H        -0.363168        -1.275280        -0.645648
 H         2.975239        -1.674072         0.215937
 H         2.385198        -1.466097        -1.395121
 H         5.304455         1.245535        -1.013616
 H         5.183069        -0.533214        -0.177191
 H         5.203198        -0.198231        -1.872086
 H         1.128711         2.092632        -1.298455
 H         3.267474         2.013443         0.621087
