19
Iteration:  1080charge 0 multiplicity 1
 C        -0.078123        -0.619781         0.109898
 C         1.337570        -0.051984        -0.155997
 C         2.535689        -0.911358        -0.443192
 C         3.433248         0.246286        -0.772593
 C         4.925324         0.204076        -1.093632
 O         2.618453         0.830869        -1.916186
 C         1.637169         1.188664        -0.895988
 C         2.650927         1.369387         0.193713
 O         1.839157         0.687837         1.188104
 H        -0.139157        -1.054586         1.074981
 H        -0.760903         0.273288         0.152829
 H        -0.465349        -1.396082        -0.560084
 H         2.835898        -1.496462         0.346992
 H         2.495966        -1.564280        -1.349595
 H         5.434408         1.197217        -0.923458
 H         5.251248        -0.433029        -0.325373
 H         5.108917        -0.159755        -2.103490
 H         0.840062         1.705717        -1.335921
 H         3.118355         2.359680         0.458453
