19
Iteration:  1980
 C        -0.017220        -0.558186         0.248160
 C         1.368039        -0.131416        -0.094803
 C         2.412594        -1.033024        -0.674563
 C         3.346027         0.220130        -0.887727
 C         4.821911         0.228111        -0.848895
 O         2.696761         0.975997        -1.983862
 C         1.632141         1.293269        -0.941944
 C         2.631411         1.409720         0.130316
 O         1.961124         0.518202         1.168078
 H         0.174713        -1.152754         1.181863
 H        -0.512436         0.349414         0.598205
 H        -0.521335        -1.148973        -0.499289
 H         2.739094        -1.727460         0.277324
 H         2.024795        -1.631732        -1.443235
 H         5.124248         1.250497        -0.844249
 H         5.261702        -0.104456         0.114110
 H         5.254384        -0.291688        -1.636849
 H         0.846085         1.935934        -1.311149
 H         3.091240         2.302459         0.529715
