19
Iteration:   651charge 0 multiplicity 1
 C        -0.173393        -0.608863         0.163988
 C         1.266931        -0.114159        -0.092910
 C         2.557319        -0.870245        -0.510309
 C         3.454347         0.397565        -0.836866
 C         4.926331         0.214285        -0.958172
 O         2.652332         0.870457        -1.955566
 C         1.671295         1.212390        -1.007691
 C         2.680634         1.357406         0.186440
 O         1.876813         0.533669         1.187449
 H        -0.142103        -1.415059         0.957735
 H        -0.795738         0.173151         0.680204
 H        -0.682745        -1.049260        -0.654977
 H         2.865808        -1.742494         0.127391
 H         2.289494        -1.280717        -1.502795
 H         5.406774         1.168568        -0.984614
 H         5.257503        -0.290580         0.017827
 H         5.169786        -0.444007        -1.794100
 H         0.826818         1.877562        -1.292356
 H         3.083530         2.309938         0.489436
