19
Iteration:   811charge 0 multiplicity 1
 C        -0.044947        -0.648840         0.213902
 C         1.282138        -0.039142        -0.047329
 C         2.415859        -0.937275        -0.544980
 C         3.328478         0.306939        -0.782661
 C         4.918018         0.253857        -0.883559
 O         2.660822         0.859146        -2.006229
 C         1.665746         1.229829        -0.938949
 C         2.750190         1.312259         0.151382
 O         1.881449         0.601257         1.079774
 H         0.061725        -1.563271         0.857120
 H        -0.693737         0.027511         0.733490
 H        -0.509432        -0.774752        -0.865410
 H         2.706229        -1.668733         0.176358
 H         2.166901        -1.355165        -1.605788
 H         5.302462         1.264526        -1.282811
 H         5.365790         0.096171         0.097974
 H         5.307267        -0.557121        -1.564809
 H         0.957734         2.043093        -1.190612
 H         3.215941         2.221253         0.540405
