19
Iteration:   174
 C        -0.105202        -0.642781         0.086503
 C         1.299093        -0.103189        -0.073943
 C         2.521405        -0.949647        -0.434078
 C         3.437061         0.417446        -0.773812
 C         4.908878         0.248621        -1.053601
 O         2.589062         0.841170        -1.914259
 C         1.716523         1.248934        -0.904382
 C         2.625669         1.351393         0.222790
 O         1.888544         0.592983         1.086517
 H        -0.303849        -1.447132         0.852215
 H        -0.940814         0.104267         0.233103
 H        -0.475726        -1.265755        -0.812158
 H         3.003894        -1.462169         0.488646
 H         2.509182        -1.488137        -1.393999
 H         5.244299         0.474058        -2.096415
 H         5.574519         0.767804        -0.288235
 H         5.169285        -0.855155        -0.914550
 H         1.020589         1.991146        -1.215291
 H         3.057973         2.221285         0.647397
