19
Iteration:  4031charge 0 multiplicity 1
 C        -0.016968        -0.706136         0.180995
 C         1.267282        -0.008627        -0.151849
 C         2.508057        -0.913742        -0.545587
 C         3.417223         0.318234        -0.827462
 C         4.897226         0.100412        -0.942860
 O         2.597627         0.903978        -1.963970
 C         1.648785         1.280531        -0.896816
 C         2.679411         1.374262         0.248091
 O         1.844381         0.646226         1.082763
 H         0.233653        -1.485621         0.940716
 H        -0.838131        -0.141054         0.622787
 H        -0.500110        -1.365113        -0.517000
 H         2.774199        -1.411365         0.353834
 H         2.546066        -1.459787        -1.443431
 H         5.415270         0.971194        -1.442707
 H         5.287781         0.204153         0.049888
 H         5.256746        -0.873468        -1.321690
 H         0.991255         2.008855        -1.301295
 H         3.286406         2.249846         0.467444
