19
Iteration:  1245charge 0 multiplicity 1
 C        -0.104883        -0.634066         0.169695
 C         1.284983        -0.098529         0.044141
 C         2.498526        -1.013272        -0.408463
 C         3.457164         0.299487        -0.756303
 C         4.876171         0.243262        -1.065444
 O         2.651697         0.833050        -1.948093
 C         1.658987         1.222070        -1.022879
 C         2.631047         1.401773         0.200005
 O         1.903660         0.682292         1.082966
 H        -0.558896        -1.198664         0.958770
 H        -0.722533         0.177433        -0.077186
 H        -0.093828        -1.386419        -0.682186
 H         2.761504        -1.665424         0.356843
 H         2.358220        -1.522136        -1.332129
 H         5.497683         1.233012        -0.913294
 H         5.242487        -0.445921        -0.349368
 H         5.073638        -0.045235        -2.147039
 H         1.096203         2.098588        -1.385956
 H         3.179372         2.294272         0.578054
