19
Iteration:  2564charge 0 multiplicity 1
 C        -0.120364        -0.596348        -0.016868
 C         1.304859        -0.034430        -0.023002
 C         2.554161        -0.979152        -0.320396
 C         3.474558         0.308513        -0.728684
 C         4.930778         0.092880        -1.241267
 O         2.605055         0.887323        -1.907911
 C         1.637295         1.222028        -0.894322
 C         2.689898         1.381995         0.243111
 O         1.815260         0.677457         1.169529
 H        -0.271545        -1.077459         0.905494
 H        -0.964259         0.095427        -0.207135
 H        -0.054702        -1.409222        -0.661991
 H         2.744021        -1.510296         0.609895
 H         2.515651        -1.467759        -1.333630
 H         5.328792         1.067865        -1.471763
 H         5.708738        -0.161810        -0.449441
 H         4.935882        -0.588074        -2.119585
 H         0.758343         1.824758        -1.165260
 H         3.260428         2.282099         0.582287
