19
Iteration:  3836
 C        -0.055847        -0.591664         0.203613
 C         1.329500        -0.053419        -0.123600
 C         2.530125        -0.930363        -0.617746
 C         3.325649         0.334261        -0.814421
 C         4.823952         0.237999        -0.832563
 O         2.580694         0.858236        -1.986943
 C         1.694526         1.265505        -0.901278
 C         2.738349         1.316978         0.172507
 O         1.906482         0.557955         1.113920
 H        -0.147464        -1.426069         0.924078
 H        -0.707805         0.111779         0.649065
 H        -0.564090        -0.942568        -0.647924
 H         2.813310        -1.686436         0.125760
 H         2.332962        -1.289894        -1.651428
 H         5.445206         0.946976        -1.376851
 H         5.144570         0.049277         0.130160
 H         5.320504        -0.552026        -1.337659
 H         0.914241         1.859877        -1.259599
 H         3.360640         2.152878         0.460879
