19
Iteration:  1467charge 0 multiplicity 1
 C        -0.012186        -0.683437         0.294495
 C         1.297299        -0.033596         0.035128
 C         2.546353        -0.874172        -0.538207
 C         3.383284         0.338683        -0.767866
 C         4.909193         0.116189        -0.885645
 O         2.644191         0.954145        -1.963195
 C         1.634501         1.134652        -1.043157
 C         2.650188         1.372138         0.064144
 O         1.859392         0.670517         1.026433
 H         0.132512        -1.506068         1.024894
 H        -0.893998        -0.097859         0.731161
 H        -0.560372        -1.096458        -0.507492
 H         3.000781        -1.706550         0.157659
 H         2.147914        -1.260235        -1.382180
 H         5.527201         0.947328        -0.598453
 H         5.014303        -0.618453        -0.016685
 H         5.178829        -0.441333        -1.824844
 H         0.881983         1.789530        -1.610757
 H         2.955833         2.393325         0.192454
