19
Iteration:   714
 C        -0.056504        -0.703854         0.039176
 C         1.326921         0.049822        -0.026924
 C         2.552446        -0.831734        -0.373719
 C         3.410879         0.280636        -0.737166
 C         4.844576         0.133542        -1.146718
 O         2.675931         0.875619        -1.899271
 C         1.646923         1.257002        -0.890068
 C         2.685126         1.249140         0.194606
 O         1.776633         0.674410         1.183230
 H        -0.155200        -1.534050         0.791974
 H        -0.975396        -0.288297        -0.161150
 H         0.145345        -1.110496        -1.082099
 H         2.966420        -1.425439         0.417830
 H         2.292277        -1.374769        -1.396350
 H         5.282998         1.133453        -1.355508
 H         5.565607        -0.422241        -0.543107
 H         4.907714        -0.202039        -2.201163
 H         0.876184         1.994313        -1.220833
 H         3.268189         2.053687         0.600655
