19
Iteration:  3423
 C        -0.045638        -0.724355        -0.055862
 C         1.276608        -0.053255        -0.053534
 C         2.568803        -0.873938        -0.342379
 C         3.360021         0.309990        -0.698208
 C         4.819308         0.063867        -1.222342
 O         2.655595         0.979568        -1.921972
 C         1.670643         1.255262        -0.890114
 C         2.733984         1.367375         0.239407
 O         1.832470         0.657118         1.177499
 H        -0.015416        -1.555321         0.712492
 H        -0.878596        -0.107990         0.332263
 H        -0.220587        -1.153269        -1.024547
 H         2.890157        -1.412017         0.600332
 H         2.510986        -1.566073        -1.173147
 H         5.188835         1.064599        -1.398285
 H         5.477523        -0.322284        -0.287571
 H         4.843647        -0.694246        -2.087741
 H         0.963468         2.024378        -1.111504
 H         3.168031         2.238585         0.719008
