19
Iteration:   903charge 0 multiplicity 1
 C        -0.044529        -0.679242         0.010033
 C         1.316855        -0.088312        -0.047425
 C         2.445086        -1.003309        -0.348516
 C         3.410940         0.335088        -0.786249
 C         4.914090         0.199600        -1.086653
 O         2.593908         0.911257        -1.935032
 C         1.690958         1.267530        -0.955360
 C         2.778622         1.314192         0.190140
 O         1.795443         0.677295         1.156690
 H        -0.079151        -1.202745         1.036439
 H        -0.838673         0.177164         0.178061
 H        -0.408766        -1.313600        -0.758047
 H         2.900809        -1.442046         0.613996
 H         2.586671        -1.579380        -1.215874
 H         5.330699         1.149353        -1.114055
 H         5.385147        -0.533975        -0.305969
 H         4.963839        -0.250519        -2.058599
 H         0.878952         1.989739        -1.069116
 H         3.246697         2.279255         0.523980
