19
Iteration:   956
 C        -0.084988        -0.614647         0.252880
 C         1.354200        -0.088731        -0.110946
 C         2.505861        -0.946458        -0.575916
 C         3.402044         0.298659        -0.758044
 C         4.938279         0.254528        -0.851783
 O         2.600875         0.866938        -2.086691
 C         1.665824         1.251154        -1.015757
 C         2.630161         1.331592         0.216668
 O         1.881218         0.601133         1.107116
 H        -0.204455        -1.516990         0.964605
 H        -0.522166         0.185996         0.910764
 H        -0.605680        -0.606745        -0.678631
 H         2.867659        -1.712858         0.191467
 H         2.374736        -1.371814        -1.489827
 H         5.300683         1.033188        -1.357596
 H         5.490309         0.094586         0.208630
 H         4.939636        -0.651932        -1.396675
 H         0.776586         1.886344        -0.976221
 H         3.276026         2.171098         0.490157
