19
Iteration:  1182charge 0 multiplicity 1
 C        -0.062970        -0.657952         0.094607
 C         1.305658        -0.043739        -0.054369
 C         2.496798        -0.929614        -0.394569
 C         3.443989         0.314832        -0.763227
 C         4.897266         0.141435        -1.070490
 O         2.652205         0.916958        -1.904106
 C         1.608959         1.153879        -0.991122
 C         2.637327         1.358985         0.099952
 O         1.894670         0.681501         1.195749
 H        -0.004412        -1.557126         0.783738
 H        -0.764873         0.038766         0.491872
 H        -0.452222        -0.828603        -0.927301
 H         2.751850        -1.598268         0.539810
 H         2.392171        -1.550331        -1.265228
 H         5.183789         1.077072        -1.629186
 H         5.433890         0.151150        -0.152020
 H         5.210678        -0.811449        -1.597923
 H         0.883663         1.986988        -1.328552
 H         3.035682         2.299773         0.462329
