19
Iteration:  2471
 C        -0.029878        -0.536607         0.278924
 C         1.285078        -0.132739        -0.108740
 C         2.451167        -0.957159        -0.542729
 C         3.371724         0.254864        -0.825620
 C         4.843460         0.201045        -0.857804
 O         2.673640         0.925753        -1.977248
 C         1.663492         1.305423        -0.995477
 C         2.720091         1.325086         0.095219
 O         1.849711         0.534991         1.085366
 H         0.125395        -1.555014         0.824317
 H        -0.201437         0.200386         1.060447
 H        -0.812716        -0.637865        -0.544796
 H         2.869532        -1.499821         0.411681
 H         2.409377        -1.627879        -1.397194
 H         5.177219         1.285949        -0.984839
 H         5.360572        -0.078541         0.044932
 H         5.221957        -0.310063        -1.715310
 H         0.826809         1.945185        -1.269634
 H         3.327806         2.216859         0.395534
