19
Iteration:  4255charge 0 multiplicity 1
 C        -0.117085        -0.598017        -0.002040
 C         1.273748        -0.134991        -0.009201
 C         2.591586        -1.013056        -0.344500
 C         3.431058         0.284113        -0.844932
 C         4.925878         0.279109        -1.129469
 O         2.580239         0.885245        -1.903614
 C         1.627086         1.261441        -0.979685
 C         2.631233         1.350563         0.204976
 O         1.887773         0.613961         1.196345
 H        -0.238346        -1.192879         0.920779
 H        -0.723509         0.312153         0.201944
 H        -0.383000        -1.037542        -0.956232
 H         2.946657        -1.425583         0.640046
 H         2.531296        -1.818560        -1.067650
 H         5.486352         0.953313        -1.719668
 H         5.288640         0.444068        -0.045332
 H         5.412599        -0.699053        -1.356842
 H         0.949666         1.972922        -1.386360
 H         3.217015         2.186252         0.435043
