19
Iteration:  2421charge 0 multiplicity 1
 C        -0.013570        -0.572973        -0.040392
 C         1.350035        -0.034718         0.020619
 C         2.584754        -0.961759        -0.414055
 C         3.411210         0.250690        -0.784743
 C         4.807205         0.144454        -1.156190
 O         2.611404         0.823408        -1.891478
 C         1.642688         1.221951        -0.856920
 C         2.646686         1.395933         0.254978
 O         1.853902         0.672202         1.153599
 H        -0.042087        -1.520603         0.440873
 H        -0.661861         0.262143         0.357481
 H        -0.189241        -0.752331        -1.085617
 H         2.717319        -1.596084         0.356665
 H         2.214288        -1.530306        -1.333678
 H         5.151066         1.150631        -1.353262
 H         5.477899        -0.130586        -0.332411
 H         5.053797        -0.606392        -2.006150
 H         0.862453         2.049919        -1.033566
 H         3.166113         2.254014         0.614255
