19
Iteration:  2093charge 0 multiplicity 1
 C        -0.011749        -0.654999         0.049431
 C         1.277399        -0.001444        -0.075734
 C         2.496755        -0.845803        -0.453161
 C         3.436316         0.294988        -0.817546
 C         4.947027         0.054156        -1.094999
 O         2.527959         0.965525        -1.914403
 C         1.655029         1.264622        -0.860831
 C         2.726882         1.328086         0.201168
 O         1.829639         0.573084         1.202536
 H         0.162077        -1.642954         0.402972
 H        -0.740792        -0.106072         0.603822
 H        -0.439262        -0.888204        -0.981548
 H         2.723726        -1.307111         0.561354
 H         2.476516        -1.630016        -1.356504
 H         5.346344         1.034340        -1.523759
 H         5.480629        -0.048761        -0.174427
 H         5.083301        -0.781613        -1.784320
 H         0.910793         2.050973        -1.150598
 H         3.280591         2.264601         0.508039
