19
Iteration:  3135
 C        -0.050348        -0.704117         0.339201
 C         1.309544         0.000697        -0.105250
 C         2.505075        -0.925903        -0.448952
 C         3.460448         0.354990        -0.841033
 C         4.884829         0.077223        -0.927881
 O         2.676541         0.924778        -1.985436
 C         1.628280         1.296390        -1.022062
 C         2.687741         1.345507         0.147870
 O         1.740029         0.596365         1.048025
 H         0.238463        -1.219378         1.191018
 H        -0.800242         0.103380         0.545692
 H        -0.328359        -1.405012        -0.468808
 H         2.904985        -1.543234         0.290091
 H         2.420423        -1.470734        -1.369804
 H         5.678761         0.980887        -0.778242
 H         5.218201        -0.686273        -0.245403
 H         5.067944        -0.173845        -1.963267
 H         1.007905         2.239151        -1.249161
 H         3.156275         2.335784         0.426504
