19
Iteration:  1471charge 0 multiplicity 1
 C        -0.018066        -0.669115         0.290721
 C         1.297806        -0.049516         0.009115
 C         2.522426        -0.895383        -0.504978
 C         3.418814         0.358508        -0.783654
 C         4.951232         0.104424        -0.875460
 O         2.631527         0.918465        -1.987530
 C         1.609441         1.173904        -1.043425
 C         2.655635         1.395018         0.081908
 O         1.844674         0.673149         1.046276
 H         0.121407        -1.511821         0.962351
 H        -0.829939        -0.104896         0.844107
 H        -0.557907        -1.216754        -0.539660
 H         2.880781        -1.722120         0.013153
 H         2.222188        -1.203629        -1.581161
 H         5.511118         1.048386        -0.740539
 H         5.108842        -0.669499         0.021259
 H         5.189055        -0.406879        -1.782593
 H         0.807065         1.713503        -1.470561
 H         3.025543         2.436892         0.327968
