19
Iteration:  3474
 C        -0.077683        -0.652593         0.205823
 C         1.337726        -0.174315        -0.108445
 C         2.453311        -0.903351        -0.621299
 C         3.349085         0.268776        -0.798870
 C         4.870482         0.226518        -0.902559
 O         2.678962         1.001165        -1.929118
 C         1.696805         1.205136        -0.917751
 C         2.698748         1.283992         0.168901
 O         1.913850         0.636825         1.118249
 H        -0.194277        -1.380902         1.003948
 H        -0.575309         0.317514         0.570321
 H        -0.607296        -0.959996        -0.720153
 H         2.656843        -1.786222        -0.004991
 H         2.050835        -1.291046        -1.573642
 H         5.217251         1.062223        -1.498878
 H         5.351228         0.309205         0.026903
 H         5.034417        -0.704382        -1.376662
 H         0.782565         1.827670        -1.205260
 H         3.207549         2.183360         0.531765
