19
Iteration:  2796
 C        -0.077246        -0.697639         0.301892
 C         1.248582        -0.010197        -0.097971
 C         2.488294        -0.934251        -0.514826
 C         3.409232         0.313740        -0.842511
 C         4.914309         0.147272        -1.007995
 O         2.719414         0.784559        -1.879737
 C         1.677421         1.234969        -1.040757
 C         2.615015         1.397762         0.184984
 O         1.825662         0.744726         1.095267
 H         0.213812        -1.331924         1.185945
 H        -0.778380         0.050072         0.594101
 H        -0.466495        -1.251762        -0.571841
 H         2.749344        -1.861256         0.143330
 H         2.390700        -1.345174        -1.515627
 H         5.447517         1.155758        -1.026474
 H         5.385960        -0.386165        -0.132094
 H         5.121224        -0.424006        -1.862293
 H         1.100420         1.990655        -1.573642
 H         3.147373         2.353406         0.605103
