19
Iteration:  2914
 C        -0.147024        -0.546197         0.075228
 C         1.283670        -0.042707        -0.046545
 C         2.564522        -0.934598        -0.261840
 C         3.385866         0.260281        -0.759949
 C         4.854753         0.267498        -1.175870
 O         2.665919         0.785477        -1.884595
 C         1.712202         1.184247        -0.968665
 C         2.754797         1.359333         0.148955
 O         1.772984         0.626180         1.090272
 H        -0.201970        -1.113211         1.102972
 H        -0.843685         0.253574        -0.005052
 H        -0.217774        -1.235826        -0.774319
 H         2.700756        -1.276552         0.765001
 H         2.496393        -1.620358        -1.038914
 H         5.191154         1.321142        -1.329404
 H         5.671130        -0.231908        -0.537375
 H         5.160059        -0.345099        -2.031211
 H         1.025467         1.886990        -1.339098
 H         3.428301         2.031676         0.850715
