19
Iteration:  3808
 C        -0.107183        -0.563780         0.197384
 C         1.298037        -0.028701        -0.086433
 C         2.484139        -0.970634        -0.466360
 C         3.352352         0.236507        -0.862684
 C         4.925592         0.251780        -0.971226
 O         2.674318         0.958085        -1.941134
 C         1.674773         1.245007        -0.925003
 C         2.649589         1.304822         0.149531
 O         1.901526         0.526058         1.106871
 H        -0.102534        -1.468549         0.829004
 H        -0.946638         0.069296         0.588036
 H        -0.545643        -0.984589        -0.796550
 H         2.853116        -1.494325         0.416578
 H         2.296132        -1.731074        -1.271448
 H         5.289739         1.297403        -1.061223
 H         5.461070        -0.136640         0.013197
 H         5.460637        -0.289254        -1.820913
 H         0.869541         1.899421        -1.326610
 H         3.167506         2.226295         0.442491
