19
Iteration:  4176
 C         0.067593        -0.715487         0.233744
 C         1.263565        -0.117533        -0.125988
 C         2.564950        -0.926208        -0.542880
 C         3.427007         0.343325        -0.859194
 C         4.943216         0.144404        -0.867151
 O         2.600882         0.939788        -1.998386
 C         1.639114         1.270980        -1.006534
 C         2.619669         1.278644         0.142003
 O         1.780914         0.738605         1.180212
 H         0.116536        -1.453964         1.130148
 H        -0.619794         0.007587         0.585039
 H        -0.518598        -1.061157        -0.617722
 H         2.851874        -1.402016         0.373030
 H         2.304542        -1.657247        -1.320029
 H         5.641705         0.970541        -0.694306
 H         5.135777        -0.620805        -0.013829
 H         4.968294        -0.263368        -1.896630
 H         0.838911         1.940629        -1.327395
 H         3.210919         2.190342         0.268236
