19
Iteration:   640
 C        -0.111186        -0.604895         0.225584
 C         1.280313        -0.079964        -0.101674
 C         2.528179        -0.934401        -0.543362
 C         3.413563         0.212942        -0.781417
 C         4.945042         0.244341        -0.898248
 O         2.638458         0.904011        -1.939170
 C         1.606650         1.280586        -0.936112
 C         2.592393         1.366988         0.163048
 O         1.928303         0.550482         1.036981
 H        -0.008103        -1.507656         0.893438
 H        -0.722626         0.241576         0.708905
 H        -0.578600        -0.773617        -0.720035
 H         2.818680        -1.754051         0.182391
 H         2.530350        -1.391955        -1.543904
 H         5.260920         1.232547        -1.164528
 H         5.392172        -0.081746         0.113139
 H         5.435959        -0.353375        -1.679876
 H         0.880330         1.988451        -1.399763
 H         3.204291         2.132190         0.597444
