19
Iteration:   163
 C        -0.146465        -0.680235         0.164400
 C         1.248980        -0.064779        -0.057477
 C         2.568113        -0.885689        -0.524249
 C         3.430776         0.366756        -0.787935
 C         4.948243         0.253102        -0.995084
 O         2.641415         0.912171        -1.936154
 C         1.604921         1.176335        -0.989892
 C         2.728822         1.315492         0.183495
 O         1.839502         0.580143         1.159767
 H        -0.207383        -1.433492         0.994723
 H        -0.829876         0.198906         0.328007
 H        -0.307122        -1.020501        -0.910712
 H         2.779372        -1.527112         0.406082
 H         2.462000        -1.638341        -1.337530
 H         5.249103         0.454682        -2.062484
 H         5.569111         0.922107        -0.330698
 H         5.167908        -0.829121        -0.724556
 H         0.855661         1.902333        -1.234116
 H         3.306785         2.157550         0.465070
