19
Iteration:   896
 C        -0.041046        -0.659411         0.027100
 C         1.319646        -0.016192        -0.098533
 C         2.528820        -0.945424        -0.328182
 C         3.431966         0.274599        -0.785435
 C         4.899590         0.174581        -1.118199
 O         2.588276         0.892561        -1.873021
 C         1.677780         1.236412        -0.891436
 C         2.690017         1.328970         0.212769
 O         1.798866         0.681882         1.114319
 H        -0.151667        -1.276813         0.873605
 H        -0.848464         0.066662        -0.037032
 H        -0.339159        -1.426224        -0.720516
 H         2.885310        -1.487982         0.535317
 H         2.322804        -1.590601        -1.278802
 H         5.589434         1.132376        -1.163032
 H         5.346039        -0.505564        -0.472967
 H         5.118067        -0.262278        -2.137758
 H         0.900291         2.001170        -1.045502
 H         3.241183         2.274627         0.463899
