19
Iteration:   101
 C        -0.063399        -0.708058         0.168745
 C         1.288953        -0.088799        -0.144915
 C         2.483094        -0.906183        -0.529412
 C         3.455361         0.295252        -0.830858
 C         4.931544         0.190085        -0.963703
 O         2.632832         0.965260        -1.973048
 C         1.681696         1.234634        -0.920014
 C         2.624199         1.390617         0.200728
 O         1.860428         0.568730         1.148638
 H         0.065032        -1.613935         0.758295
 H        -0.826935        -0.033031         0.669376
 H        -0.481448        -1.044832        -0.704007
 H         2.740944        -1.484970         0.386566
 H         2.304852        -1.458947        -1.379000
 H         5.249955        -0.646792        -1.489752
 H         5.447515         1.161180        -1.280212
 H         5.217262         0.016733         0.009995
 H         1.061620         2.096575        -1.066833
 H         2.855650         2.408546         0.602805
