19
Iteration:  2270
 C        -0.181937        -0.670603         0.081107
 C         1.300246        -0.078648        -0.048330
 C         2.549024        -0.889730        -0.505899
 C         3.429817         0.293747        -0.812449
 C         4.890959         0.196615        -1.088257
 O         2.607077         0.878864        -1.916772
 C         1.750361         1.252998        -0.919741
 C         2.676560         1.400892         0.222822
 O         1.887257         0.593075         1.228068
 H        -0.216979        -1.640743         0.627339
 H        -0.793609         0.027110         0.737563
 H        -0.516746        -0.555618        -0.899875
 H         2.766367        -1.560797         0.288974
 H         2.312338        -1.536171        -1.488987
 H         5.319374         0.991919        -1.560913
 H         5.412179        -0.220859        -0.257909
 H         5.065473        -0.603243        -1.855597
 H         0.994459         2.043073        -1.258971
 H         3.112712         2.276327         0.633000
