19
Iteration:   724
 C        -0.004788        -0.684338        -0.035908
 C         1.275446        -0.025201         0.044606
 C         2.508060        -0.933074        -0.408166
 C         3.418236         0.267382        -0.739433
 C         4.850579         0.159411        -1.164574
 O         2.655138         0.910524        -1.879122
 C         1.666904         1.225102        -0.934841
 C         2.719895         1.370306         0.219327
 O         1.783079         0.679352         1.185660
 H        -0.052762        -1.408173         0.812274
 H        -0.774257         0.006505         0.175881
 H        -0.165038        -1.320483        -1.005166
 H         2.957506        -1.599323         0.275777
 H         2.351835        -1.569845        -1.368204
 H         5.251945         1.205984        -1.214272
 H         5.409220        -0.324031        -0.396618
 H         4.944202        -0.428290        -2.097925
 H         0.958424         2.000427        -1.292348
 H         3.235258         2.283822         0.533975
