19
Iteration:  1086charge 0 multiplicity 1
 C        -0.062191        -0.606614         0.115689
 C         1.335060        -0.043300        -0.076767
 C         2.538146        -0.942758        -0.512606
 C         3.455042         0.245590        -0.758473
 C         4.928292         0.205793        -1.021365
 O         2.595202         0.836647        -1.950851
 C         1.588600         1.209365        -0.932784
 C         2.691802         1.381807         0.203988
 O         1.818671         0.676508         1.168495
 H         0.117383        -1.086757         1.153769
 H        -0.727728         0.266743         0.193154
 H        -0.425984        -1.356963        -0.588041
 H         2.686558        -1.652603         0.435773
 H         2.450320        -1.571813        -1.380351
 H         5.354496         1.183540        -1.027852
 H         5.672618        -0.560555        -0.365520
 H         5.101338        -0.171002        -2.050598
 H         0.710415         1.805987        -1.386709
 H         3.081695         2.370201         0.413857
