19
Iteration:  2026
 C        -0.148250        -0.646791         0.103752
 C         1.305414        -0.023344        -0.105969
 C         2.533519        -0.942638        -0.422226
 C         3.380058         0.309087        -0.835745
 C         4.917433         0.176163        -1.186628
 O         2.602787         0.888726        -1.904884
 C         1.751457         1.290414        -0.883863
 C         2.658495         1.361697         0.276025
 O         1.845668         0.562298         1.178987
 H        -0.250211        -1.261609         0.951363
 H        -0.805887         0.158783         0.200390
 H        -0.338652        -1.236803        -0.865558
 H         2.958518        -1.401753         0.561869
 H         2.523428        -1.655991        -1.305808
 H         5.552623         1.128329        -1.022728
 H         5.436875        -0.401590        -0.458337
 H         5.072438        -0.268993        -2.115732
 H         1.034820         1.984837        -1.179486
 H         3.201294         2.277609         0.597276
