19
Iteration:  1945charge 0 multiplicity 1
 C        -0.078104        -0.666926         0.203703
 C         1.319874        -0.062691        -0.074563
 C         2.484874        -0.901807        -0.579649
 C         3.446387         0.331433        -0.816542
 C         5.005348         0.124697        -0.922910
 O         2.562296         0.953059        -1.957808
 C         1.621004         1.257645        -0.863817
 C         2.741430         1.413375         0.094641
 O         1.818581         0.542523         1.096555
 H         0.019417        -1.582129         0.897855
 H        -0.679446         0.159142         0.776966
 H        -0.742311        -0.961064        -0.558116
 H         2.678762        -1.588761         0.367412
 H         2.264021        -1.462626        -1.507607
 H         5.423516         0.875503        -1.465776
 H         5.461547        -0.076182         0.066201
 H         5.248103        -0.783089        -1.526096
 H         0.852996         2.068163        -1.178118
 H         3.231060         2.310492         0.500886
