19
Iteration:  2570charge 0 multiplicity 1
 C        -0.148752        -0.580024        -0.036101
 C         1.287897        -0.040272        -0.021888
 C         2.551413        -0.968829        -0.336053
 C         3.500671         0.280633        -0.739746
 C         4.906113         0.107494        -1.224701
 O         2.647337         0.883362        -1.880529
 C         1.616447         1.144215        -0.929330
 C         2.723617         1.457315         0.247342
 O         1.807509         0.674481         1.196832
 H        -0.191105        -1.031551         1.030228
 H        -1.013854         0.140493        -0.052830
 H        -0.105020        -1.463768        -0.814357
 H         2.841954        -1.644604         0.485449
 H         2.339233        -1.600801        -1.274824
 H         5.201680         1.149350        -1.558796
 H         5.630540        -0.143366        -0.509398
 H         4.998966        -0.398369        -2.219930
 H         0.725355         1.835582        -1.086020
 H         3.387991         2.262500         0.524949
