19
Iteration:  4208
 C        -0.008406        -0.763075         0.188810
 C         1.286675        -0.082868        -0.106074
 C         2.405599        -0.947181        -0.464191
 C         3.418738         0.324412        -0.799429
 C         4.861526         0.201442        -1.016851
 O         2.727678         0.835878        -1.882604
 C         1.690456         1.339824        -0.993875
 C         2.577024         1.448854         0.177010
 O         1.893524         0.642198         1.116995
 H        -0.006786        -1.375700         1.190526
 H        -0.793072        -0.026276         0.232461
 H        -0.185506        -1.361540        -0.728263
 H         2.686787        -1.526746         0.382782
 H         2.219818        -1.587715        -1.333522
 H         5.296797         1.062957        -1.554950
 H         5.539387        -0.051478        -0.161743
 H         5.012827        -0.608936        -1.757287
 H         0.903807         2.004849        -1.351581
 H         2.953287         2.401880         0.597872
