19
Iteration:  4994
 C        -0.032898        -0.635449         0.151067
 C         1.310560        -0.080492        -0.046097
 C         2.461309        -0.926228        -0.518797
 C         3.340579         0.318334        -0.762958
 C         4.780044         0.226140        -1.014032
 O         2.738853         0.900867        -1.948435
 C         1.738912         1.247455        -0.951441
 C         2.679558         1.344124         0.204676
 O         1.876700         0.559512         1.090174
 H        -0.243397        -1.018163         1.107565
 H        -0.831822         0.127274         0.176126
 H        -0.326347        -1.429789        -0.551409
 H         2.802109        -1.571654         0.289733
 H         2.227307        -1.423201        -1.493029
 H         5.309237         1.241820        -0.964907
 H         5.238742        -0.415467        -0.245225
 H         4.941630        -0.214503        -2.009193
 H         0.948739         1.975006        -0.988396
 H         3.097305         2.268870         0.748009
