19
Iteration:  4644charge 0 multiplicity 1
 C         0.048625        -0.738682         0.183422
 C         1.262335        -0.062626        -0.056465
 C         2.467916        -0.974546        -0.507114
 C         3.449853         0.316879        -0.840856
 C         4.863348         0.073853        -0.999832
 O         2.733814         1.037769        -1.958250
 C         1.668401         1.227323        -0.968484
 C         2.536575         1.395527         0.192586
 O         1.845710         0.689590         1.159035
 H         0.006832        -1.612238         0.974617
 H        -0.690247        -0.066424         0.585494
 H        -0.387184        -1.134730        -0.725177
 H         2.664079        -1.772034         0.260654
 H         2.235902        -1.484758        -1.452754
 H         5.407805         0.887567        -1.405784
 H         5.262580        -0.053791         0.031503
 H         5.024576        -0.818876        -1.611406
 H         0.928660         2.034664        -1.245753
 H         3.056134         2.375309         0.425596
