19
Iteration:  4601
 C        -0.122877        -0.684485         0.092416
 C         1.304760        -0.075987        -0.083264
 C         2.512255        -0.958494        -0.400258
 C         3.406083         0.284369        -0.785875
 C         4.847157         0.234045        -1.007349
 O         2.622832         0.905350        -1.981205
 C         1.698770         1.269824        -0.934863
 C         2.708900         1.337575         0.161833
 O         1.885930         0.633543         1.155332
 H        -0.202071        -1.125627         1.162290
 H        -0.873030         0.079424        -0.107032
 H        -0.284029        -1.584463        -0.499022
 H         2.896176        -1.348883         0.585087
 H         2.442248        -1.694702        -1.201804
 H         5.512136         1.069163        -0.837291
 H         5.388709        -0.645369        -0.556576
 H         4.983363         0.093701        -2.092981
 H         0.967308         2.133597        -1.060899
 H         3.110462         2.354184         0.399055
