19
Iteration:   559
 C        -0.031923        -0.650217         0.042382
 C         1.358113        -0.073794        -0.025357
 C         2.608281        -0.864376        -0.491783
 C         3.377155         0.315049        -0.832977
 C         4.810918         0.101350        -1.093740
 O         2.680210         0.919395        -1.909705
 C         1.669113         1.245174        -0.911799
 C         2.603259         1.368569         0.277120
 O         1.795906         0.611404         1.191669
 H        -0.151425        -1.471736         0.767496
 H        -0.835216         0.037368         0.251854
 H        -0.139532        -1.168285        -0.962323
 H         3.102027        -1.145406         0.428529
 H         2.431932        -1.647891        -1.283509
 H         5.176799         1.130093        -1.298375
 H         5.379147        -0.192485        -0.242780
 H         4.955614        -0.645821        -1.887505
 H         0.961180         1.865843        -1.435032
 H         3.103884         2.281851         0.679663
