19
Iteration:  1589
 C        -0.136020        -0.743634         0.166981
 C         1.298204        -0.006594        -0.086562
 C         2.540114        -0.935506        -0.426978
 C         3.379905         0.270800        -0.854917
 C         4.898382         0.174787        -1.056565
 O         2.724105         0.882055        -1.944379
 C         1.615040         1.220896        -0.918321
 C         2.695739         1.388465         0.176839
 O         1.869234         0.735725         1.102525
 H        -0.118863        -1.477135         0.965304
 H        -1.081474        -0.160274         0.431819
 H        -0.349694        -1.263796        -0.785617
 H         2.854608        -1.276362         0.657801
 H         2.403700        -1.736299        -1.148558
 H         5.263015         1.126834        -1.368744
 H         5.364734        -0.143135        -0.030256
 H         5.189265        -0.552930        -1.760605
 H         0.722394         1.750072        -1.172932
 H         3.109958         2.260295         0.758716
