19
Iteration:  2417charge 0 multiplicity 1
 C        -0.004494        -0.564738        -0.055943
 C         1.342310        -0.055109         0.018494
 C         2.562252        -0.987425        -0.430056
 C         3.423820         0.261113        -0.780108
 C         4.814158         0.126721        -1.182030
 O         2.591109         0.845107        -1.842653
 C         1.661255         1.229004        -0.867831
 C         2.639340         1.399897         0.270181
 O         1.863895         0.691775         1.133010
 H         0.065994        -1.498014         0.512746
 H        -0.733441         0.148351         0.234725
 H        -0.264569        -0.822478        -1.117963
 H         2.764252        -1.606151         0.577448
 H         2.323059        -1.650161        -1.274490
 H         5.081808         1.208364        -1.433067
 H         5.418790        -0.199879        -0.348262
 H         5.027019        -0.588701        -1.948665
 H         0.945019         2.026755        -1.062319
 H         3.170575         2.313703         0.639059
