19
Iteration:  3907
 C         0.004452        -0.647958         0.027514
 C         1.342359        -0.024167        -0.094293
 C         2.484272        -0.899088        -0.404056
 C         3.473075         0.285225        -0.800051
 C         4.933096         0.136777        -1.166781
 O         2.594747         0.862013        -1.900846
 C         1.720336         1.275041        -0.895886
 C         2.639542         1.381384         0.252272
 O         1.737909         0.657435         1.213035
 H        -0.008283        -1.411702         0.814474
 H        -0.928219        -0.075188         0.285722
 H        -0.333908        -1.263595        -0.877610
 H         2.917153        -1.491298         0.425658
 H         2.277655        -1.606709        -1.241463
 H         5.374327         1.058292        -1.535301
 H         5.528308        -0.398103        -0.355259
 H         5.046354        -0.487141        -2.079912
 H         0.888487         1.979750        -1.306844
 H         3.090123         2.139406         0.946489
