19
Iteration:   305charge 0 multiplicity 1
 C        -0.016123        -0.663372         0.253750
 C         1.329867        -0.031070        -0.081029
 C         2.409622        -0.918644        -0.544920
 C         3.391347         0.358626        -0.781922
 C         4.904500         0.252241        -0.882318
 O         2.638553         0.865933        -1.983454
 C         1.706538         1.187391        -0.977718
 C         2.641049         1.349241         0.123584
 O         1.844542         0.559173         1.074538
 H         0.113717        -1.446793         1.033755
 H        -0.789306         0.099867         0.670576
 H        -0.503822        -1.125414        -0.579103
 H         2.999611        -1.470478         0.276893
 H         2.429348        -1.538656        -1.381466
 H         5.247368         1.104087        -0.275325
 H         5.464722        -0.636763        -0.415457
 H         5.214804         0.363071        -1.934346
 H         1.069184         1.923847        -1.386866
 H         2.963033         2.344365         0.304509
