19
Iteration:  2589
 C        -0.108055        -0.565054         0.069872
 C         1.323270        -0.100840         0.003697
 C         2.514142        -0.969769        -0.417536
 C         3.419684         0.258356        -0.784163
 C         4.825915         0.227405        -1.179795
 O         2.711653         0.798370        -1.895540
 C         1.730204         1.246704        -0.942982
 C         2.632801         1.291633         0.237410
 O         1.830292         0.710851         1.168033
 H        -0.403089        -1.264556         0.910156
 H        -0.656586         0.312962         0.216643
 H        -0.253180        -1.109521        -0.872119
 H         2.821042        -1.450407         0.564364
 H         2.379817        -1.453794        -1.307829
 H         5.277166         1.262154        -1.337802
 H         5.553114        -0.115864        -0.377182
 H         4.870670        -0.332626        -2.092973
 H         0.951487         1.869804        -1.302831
 H         3.077734         2.303275         0.497955
