19
Iteration:  2814
 C         0.004989        -0.724405         0.341833
 C         1.299295        -0.043065        -0.056785
 C         2.439602        -0.874869        -0.552765
 C         3.361336         0.254586        -0.712359
 C         4.889553         0.096154        -0.885078
 O         2.707722         0.895900        -2.065774
 C         1.709649         1.251225        -1.026886
 C         2.639939         1.427352         0.102582
 O         1.785222         0.700134         1.073377
 H         0.336869        -1.610468         0.989644
 H        -0.599401         0.025144         0.938796
 H        -0.525437        -1.107390        -0.525205
 H         2.762657        -1.473921         0.266398
 H         2.191390        -1.390746        -1.488000
 H         5.385073         1.009343        -1.174292
 H         5.492974        -0.402340        -0.067790
 H         5.219945        -0.616660        -1.669828
 H         0.876340         1.874280        -1.277606
 H         3.179295         2.353542         0.441302
