19
Iteration:  2159
 C        -0.088631        -0.537812         0.321898
 C         1.274855        -0.120522        -0.160882
 C         2.474791        -0.968297        -0.660566
 C         3.397444         0.324001        -0.839086
 C         4.920393         0.262634        -0.871208
 O         2.619801         0.919544        -1.954246
 C         1.656374         1.299209        -0.930955
 C         2.775297         1.301532         0.178431
 O         1.858998         0.475904         1.070336
 H         0.060261        -1.132017         1.217110
 H        -0.654614         0.393032         0.525537
 H        -0.736860        -1.139446        -0.340039
 H         2.806368        -1.600250         0.164629
 H         2.386511        -1.680467        -1.653002
 H         5.236911         1.323483        -0.885788
 H         5.210766        -0.334891        -0.040777
 H         5.399586        -0.177463        -1.759756
 H         0.745255         1.969661        -1.134087
 H         3.301682         2.152476         0.677945
