19
Iteration:  3680
 C        -0.150989        -0.586615         0.263216
 C         1.287711        -0.155942        -0.099072
 C         2.487576        -0.999860        -0.583096
 C         3.336454         0.308034        -0.773613
 C         4.924040         0.276241        -0.904763
 O         2.656188         0.968872        -1.933533
 C         1.716772         1.269806        -0.947110
 C         2.671929         1.304201         0.147922
 O         1.921977         0.544236         1.041970
 H        -0.138595        -1.425210         0.897483
 H        -0.822429         0.189655         0.730635
 H        -0.565933        -1.004994        -0.635598
 H         2.806548        -1.719269         0.185055
 H         2.310746        -1.388242        -1.551569
 H         5.356174         1.274474        -1.402223
 H         5.463334         0.176677         0.040028
 H         5.189395        -0.666167        -1.460659
 H         0.995906         2.071682        -1.347323
 H         3.216269         2.124284         0.652716
