19
Iteration:  4304
 C        -0.062658        -0.672734         0.172214
 C         1.292151        -0.061967        -0.041282
 C         2.579293        -0.953479        -0.536349
 C         3.424105         0.216095        -0.849801
 C         4.995190         0.186136        -0.972673
 O         2.584017         0.868997        -1.986758
 C         1.641216         1.235550        -0.968687
 C         2.613135         1.396389         0.295065
 O         1.789605         0.735560         1.135615
 H         0.116261        -1.637772         0.682901
 H        -0.761464        -0.092271         0.750078
 H        -0.523341        -0.833455        -0.813394
 H         2.882628        -1.619051         0.270881
 H         2.295879        -1.568537        -1.436418
 H         5.431321         1.186426        -1.245628
 H         5.573539        -0.084943        -0.108700
 H         5.437775        -0.426066        -1.760515
 H         0.766340         1.854756        -1.355668
 H         3.349568         2.234821         0.542937
