19
Iteration:  4556charge 0 multiplicity 1
 C        -0.158924        -0.558512         0.068483
 C         1.299162        -0.120237        -0.077056
 C         2.604739        -0.914438        -0.443127
 C         3.404643         0.312561        -0.670868
 C         4.910131         0.264734        -1.112097
 O         2.601299         0.746175        -1.962147
 C         1.704221         1.188010        -0.859701
 C         2.675951         1.399102         0.177606
 O         1.826738         0.617262         1.136088
 H        -0.101225        -1.036880         1.164393
 H        -0.608734         0.346967         0.117490
 H        -0.576571        -1.277181        -0.599914
 H         2.826383        -1.606177         0.391524
 H         2.538777        -1.349933        -1.452521
 H         5.304635         1.191602        -0.893394
 H         5.602713        -0.468643        -0.627063
 H         4.971621         0.288211        -2.219206
 H         0.966935         1.867070        -1.161070
 H         3.286763         2.202406         0.589754
