19
Iteration:  3122charge 0 multiplicity 1
 C         0.016075        -0.694189         0.225870
 C         1.261222        -0.081677        -0.117524
 C         2.515740        -0.852466        -0.517456
 C         3.379527         0.287714        -0.702691
 C         4.904924         0.091433        -1.027530
 O         2.645658         0.872801        -1.959311
 C         1.730626         1.286768        -0.980965
 C         2.632148         1.387377         0.178023
 O         1.795220         0.696877         1.093110
 H         0.070792        -1.229557         1.191670
 H        -0.732853         0.020866         0.352308
 H        -0.415333        -1.442638        -0.440738
 H         2.719968        -1.467120         0.365759
 H         2.387556        -1.499018        -1.329617
 H         5.458918         1.114757        -0.956057
 H         5.347492        -0.683362        -0.296234
 H         4.998786        -0.320256        -2.044929
 H         0.927289         1.925024        -1.319680
 H         3.240777         2.207857         0.728738
