19
Iteration:  3036
 C        -0.160101        -0.563209         0.134775
 C         1.312359        -0.082496        -0.018903
 C         2.492563        -0.933709        -0.435659
 C         3.480358         0.263945        -0.725173
 C         4.884428         0.223062        -1.004261
 O         2.616527         0.864702        -1.990003
 C         1.671329         1.106471        -1.015301
 C         2.629840         1.341122         0.175757
 O         1.910260         0.690331         1.141361
 H        -0.099121        -1.530996         0.619517
 H        -0.719193         0.157845         0.716710
 H        -0.413307        -0.571057        -0.952923
 H         2.755847        -1.584352         0.381022
 H         2.282238        -1.427543        -1.336020
 H         5.202496         1.095091        -1.670587
 H         5.631099         0.388972        -0.219092
 H         5.252203        -0.646931        -1.446631
 H         0.858244         1.763294        -1.378428
 H         3.432203         2.046120         0.621300
