19
Iteration:  2936
 C        -0.063210        -0.614558         0.076167
 C         1.304779        -0.059066        -0.091398
 C         2.537592        -0.964275        -0.420193
 C         3.408717         0.258236        -0.724666
 C         4.883401         0.180215        -1.092146
 O         2.626387         0.779076        -1.960692
 C         1.709674         1.237673        -0.949261
 C         2.583235         1.373709         0.192508
 O         1.855478         0.756937         1.196967
 H        -0.092508        -0.962242         1.182602
 H        -0.733936         0.200137        -0.045511
 H        -0.268560        -1.436129        -0.636379
 H         2.876117        -1.449230         0.511165
 H         2.443668        -1.549384        -1.273927
 H         5.468351         1.147005        -1.041970
 H         5.425721        -0.630923        -0.502610
 H         5.077809        -0.313909        -2.033726
 H         0.923052         1.922746        -1.168745
 H         3.139596         2.388061         0.428676
