19
Iteration:   331charge 0 multiplicity 1
 C        -0.094462        -0.694006         0.106936
 C         1.376395        -0.076897        -0.087249
 C         2.535814        -0.959923        -0.424024
 C         3.389870         0.328435        -0.767243
 C         4.870276         0.245276        -1.051410
 O         2.662336         0.869172        -1.937646
 C         1.638945         1.254583        -0.904346
 C         2.678834         1.344528         0.162762
 O         1.817411         0.664618         1.137504
 H        -0.188887        -1.327224         1.010260
 H        -0.813544         0.149712         0.290260
 H        -0.591832        -1.276913        -0.730414
 H         2.906624        -1.626427         0.388207
 H         2.621078        -1.546471        -1.382836
 H         5.324704         1.142286        -0.549724
 H         5.321122        -0.616386        -0.451351
 H         5.174535         0.182526        -2.100964
 H         0.769639         1.718884        -1.426993
 H         3.394339         2.193234         0.421901
