19
Iteration:  1899
 C        -0.057662        -0.687995        -0.064009
 C         1.279840        -0.040260        -0.051012
 C         2.532047        -0.904495        -0.271510
 C         3.442373         0.290001        -0.671292
 C         4.855958         0.127474        -1.213712
 O         2.604159         0.886521        -1.918078
 C         1.669144         1.279498        -0.823613
 C         2.709554         1.365533         0.180837
 O         1.855972         0.660554         1.159538
 H         0.008501        -1.687238         0.478137
 H        -0.940770        -0.003624         0.224224
 H        -0.234327        -0.987480        -1.142752
 H         2.868277        -1.457274         0.572219
 H         2.394290        -1.500923        -1.284086
 H         5.176929         1.009094        -1.780756
 H         5.627447        -0.168273        -0.546377
 H         4.907555        -0.723460        -1.983314
 H         0.915179         2.130959        -0.912013
 H         3.082060         2.316387         0.583760
