19
Iteration:  4792charge 0 multiplicity 1
 C        -0.066002        -0.792574         0.176909
 C         1.248251         0.001675        -0.075753
 C         2.459005        -0.874389        -0.411250
 C         3.386677         0.348514        -0.813224
 C         4.867277         0.054725        -1.016399
 O         2.733073         0.992040        -1.921546
 C         1.696846         1.289473        -0.957281
 C         2.678188         1.378094         0.153174
 O         1.875880         0.612803         1.095836
 H        -0.110682        -1.275368         1.172828
 H        -0.906725        -0.157198         0.002530
 H        -0.261247        -1.743573        -0.396672
 H         2.791870        -1.631424         0.282410
 H         2.234860        -1.316936        -1.389307
 H         5.339712         0.989220        -0.723722
 H         5.363080        -0.781948        -0.445168
 H         5.199804        -0.017285        -2.127286
 H         0.912533         1.894892        -1.258528
 H         2.798284         2.339641         0.509874
