19
Iteration:  2973charge 0 multiplicity 1
 C        -0.009721        -0.709419         0.260922
 C         1.287350        -0.084140        -0.107055
 C         2.483175        -0.884008        -0.492057
 C         3.380280         0.307144        -0.823316
 C         4.884821         0.036857        -0.862518
 O         2.649548         0.928108        -1.973543
 C         1.633522         1.244417        -1.000713
 C         2.610903         1.427656         0.063972
 O         1.938343         0.719127         1.100291
 H         0.095546        -1.341228         1.122524
 H        -0.917699        -0.030930         0.445538
 H        -0.336629        -1.429087        -0.567519
 H         2.755851        -1.491677         0.399808
 H         2.410352        -1.630367        -1.374670
 H         5.532268         0.954757        -0.721573
 H         4.989612        -0.619823        -0.042500
 H         5.091206        -0.411886        -1.834867
 H         0.933972         2.125091        -1.220632
 H         3.140276         2.300777         0.377353
