19
Iteration:  4509
 C        -0.070560        -0.788455         0.182034
 C         1.280149        -0.063196        -0.034704
 C         2.570339        -0.908622        -0.515796
 C         3.378980         0.258021        -0.798331
 C         4.863311         0.101777        -0.949568
 O         2.639757         0.972881        -1.950122
 C         1.647535         1.230520        -0.942275
 C         2.722341         1.351699         0.120542
 O         1.872999         0.762094         1.123911
 H        -0.014301        -1.804876         0.628613
 H        -0.674968        -0.030990         0.819974
 H        -0.511803        -0.883001        -0.854692
 H         3.012343        -1.669477         0.140714
 H         2.118264        -1.292638        -1.470421
 H         5.227386         1.081525        -1.436527
 H         5.169207         0.061210         0.068304
 H         5.229243        -0.677607        -1.631960
 H         0.755383         1.827617        -1.221537
 H         3.125681         2.289148         0.524211
