19
Iteration:   965charge 0 multiplicity 1
 C        -0.088590        -0.594891         0.260149
 C         1.279710        -0.114267        -0.019739
 C         2.565103        -0.911938        -0.546840
 C         3.398945         0.297003        -0.806504
 C         4.857605         0.189662        -0.857097
 O         2.599621         0.909512        -2.039697
 C         1.700620         1.272411        -1.035269
 C         2.660432         1.299140         0.141345
 O         1.879744         0.591577         1.109361
 H        -0.016739        -1.592780         0.733036
 H        -0.467889         0.162067         0.875327
 H        -0.669556        -0.716703        -0.673938
 H         3.106032        -1.618228         0.103811
 H         2.471751        -1.429460        -1.480658
 H         5.269326         1.036535        -1.393087
 H         5.256231         0.273443         0.222915
 H         5.319398        -0.681325        -1.347089
 H         0.919589         1.994602        -1.349225
 H         2.996019         2.142230         0.644904
