19
Iteration:   731charge 0 multiplicity 1
 C        -0.045599        -0.698880        -0.006172
 C         1.328932        -0.111133        -0.039952
 C         2.506603        -0.981666        -0.448489
 C         3.385412         0.274719        -0.791372
 C         4.871082         0.183277        -1.118548
 O         2.648506         0.897624        -1.884534
 C         1.723922         1.244523        -0.905597
 C         2.673367         1.437597         0.241271
 O         1.824538         0.701702         1.188457
 H        -0.048625        -1.452083         0.764007
 H        -0.751544         0.223891         0.209402
 H        -0.340175        -1.214263        -0.912306
 H         2.691920        -1.588002         0.507802
 H         2.256470        -1.543582        -1.318473
 H         5.330357         1.191050        -1.388148
 H         5.345506        -0.357058        -0.289097
 H         4.914336        -0.454353        -2.030084
 H         0.888070         1.892716        -1.132350
 H         3.165319         2.369484         0.648406
