19
Iteration:   421charge 0 multiplicity 1
 C        -0.049580        -0.731917         0.129032
 C         1.267235        -0.056555        -0.096444
 C         2.483497        -0.904721        -0.492368
 C         3.411142         0.274074        -0.892714
 C         4.906940         0.229121        -1.005071
 O         2.676771         0.885571        -1.933968
 C         1.703536         1.233382        -0.883989
 C         2.630733         1.386429         0.255125
 O         1.858321         0.652605         1.117202
 H         0.031397        -1.650291         0.744341
 H        -0.657671        -0.009032         0.586375
 H        -0.585913        -0.992008        -0.855753
 H         2.725721        -1.590766         0.248033
 H         2.194053        -1.588602        -1.392241
 H         5.383953         1.084180        -1.515562
 H         5.263272         0.350726        -0.043754
 H         5.292404        -0.762479        -1.316814
 H         0.816833         1.888509        -0.998926
 H         3.077685         2.338537         0.536955
