19
Iteration:  2357charge 0 multiplicity 1
 C         0.013765        -0.679317         0.108212
 C         1.381360        -0.074454        -0.149216
 C         2.474787        -0.965374        -0.550087
 C         3.411989         0.281585        -0.784154
 C         4.871359         0.073915        -1.029396
 O         2.654552         0.962906        -1.898415
 C         1.601696         1.299488        -0.883956
 C         2.620020         1.389174         0.227204
 O         1.878238         0.668704         1.137579
 H        -0.081025        -0.964715         1.271173
 H        -0.796193         0.158694         0.261686
 H        -0.436889        -1.525171        -0.407578
 H         2.545821        -1.722526         0.177089
 H         2.301618        -1.429509        -1.595643
 H         5.318957         1.039844        -1.169080
 H         5.336737        -0.266956        -0.091419
 H         5.013618        -0.556879        -1.969572
 H         0.824542         2.066702        -1.206038
 H         3.295232         2.034912         0.727531
