19
Iteration:  1041charge 0 multiplicity 1
 C        -0.041191        -0.664816         0.034264
 C         1.282872        -0.060543        -0.100554
 C         2.544460        -0.910889        -0.333039
 C         3.439983         0.243151        -0.732111
 C         4.861506         0.134461        -1.139279
 O         2.615050         0.938887        -1.921877
 C         1.683049         1.201828        -0.958477
 C         2.653423         1.393977         0.161268
 O         1.831906         0.684144         1.217494
 H        -0.146630        -1.301008         0.979941
 H        -0.750513         0.133637         0.030162
 H        -0.252382        -1.260318        -0.905348
 H         2.874893        -1.457235         0.630227
 H         2.409910        -1.633627        -1.162072
 H         5.317334         1.141123        -1.241885
 H         5.532129        -0.484621        -0.369396
 H         5.062679        -0.405609        -2.090833
 H         0.777768         1.870199        -1.078912
 H         3.274314         2.223240         0.388031
