19
Iteration:  4839charge 0 multiplicity 1
 C        -0.106617        -0.634620         0.130766
 C         1.287960        -0.107030        -0.030594
 C         2.477839        -0.932898        -0.526866
 C         3.401495         0.296546        -0.780568
 C         4.976483         0.225992        -1.020559
 O         2.670009         0.874111        -1.976185
 C         1.667892         1.238907        -0.890319
 C         2.662880         1.389383         0.153708
 O         1.825253         0.619483         1.174043
 H        -0.053019        -1.463203         0.891372
 H        -0.735304         0.205181         0.360092
 H        -0.508937        -1.165074        -0.704569
 H         2.962873        -1.670348         0.178174
 H         2.300737        -1.479947        -1.458655
 H         5.553532         1.129421        -0.725045
 H         5.166392        -0.593748        -0.273954
 H         5.193163        -0.106470        -2.070068
 H         0.911264         1.988171        -1.163302
 H         3.211344         2.378744         0.464376
