19
Iteration:  1263charge 0 multiplicity 1
 C        -0.125068        -0.643304         0.175333
 C         1.318514        -0.119761        -0.029531
 C         2.544685        -0.891868        -0.460798
 C         3.386245         0.292090        -0.818481
 C         4.802623         0.171066        -0.937328
 O         2.719265         0.876722        -1.971858
 C         1.657904         1.262922        -1.030636
 C         2.645808         1.355484         0.085801
 O         1.891035         0.660458         1.177791
 H        -0.020300        -1.125596         1.156926
 H        -0.860406         0.232876         0.360981
 H        -0.433011        -1.482222        -0.462695
 H         3.103507        -1.421317         0.352429
 H         2.379302        -1.559146        -1.418967
 H         5.297975         1.076066        -0.794960
 H         5.375627        -0.573019        -0.312585
 H         4.998363         0.018749        -1.948887
 H         0.752557         1.704036        -1.332809
 H         3.217527         2.252068         0.381010
