19
Iteration:  3273
 C        -0.029833        -0.719085         0.010761
 C         1.314852        -0.074791        -0.000082
 C         2.512929        -0.872960        -0.453749
 C         3.371570         0.333984        -0.821911
 C         4.846174         0.076587        -1.076912
 O         2.619325         0.943275        -1.882729
 C         1.673753         1.251762        -0.900815
 C         2.706884         1.394942         0.182412
 O         1.870763         0.666453         1.139590
 H         0.016077        -1.501782         0.912961
 H        -0.860140        -0.035670         0.240545
 H        -0.344092        -1.341614        -0.877150
 H         2.917844        -1.407305         0.507057
 H         2.280612        -1.491542        -1.330477
 H         5.247697         0.771388        -1.749187
 H         5.370773         0.204234        -0.079478
 H         5.088829        -0.939582        -1.432656
 H         0.835145         1.859950        -1.146891
 H         3.193054         2.284066         0.659437
