19
Iteration:  3970charge 0 multiplicity 1
 C        -0.064566        -0.561293         0.170936
 C         1.311368        -0.122691        -0.068151
 C         2.539626        -0.889933        -0.487009
 C         3.392237         0.282132        -0.786788
 C         5.019997         0.230735        -0.947457
 O         2.538179         0.862271        -1.933702
 C         1.622342         1.213834        -0.969931
 C         2.712260         1.321799         0.138312
 O         1.822016         0.593479         1.077843
 H         0.073871        -1.317598         0.960916
 H        -0.641747         0.225005         0.593790
 H        -0.461177        -0.842787        -0.831509
 H         2.727025        -1.604264         0.381547
 H         2.442336        -1.648591        -1.378943
 H         5.467118         1.201870        -0.713199
 H         5.359625        -0.606602        -0.251989
 H         5.222813         0.073498        -1.989571
 H         0.836313         2.053615        -1.054523
 H         3.149719         2.309523         0.463629
