19
Iteration:  1501
 C        -0.039655        -0.644956         0.164206
 C         1.284755        -0.046108        -0.149874
 C         2.526924        -0.943671        -0.441703
 C         3.395637         0.248727        -0.833272
 C         4.816438         0.235668        -0.974590
 O         2.635048         0.829478        -1.918869
 C         1.698786         1.261964        -1.012621
 C         2.698978         1.328391         0.161823
 O         1.846667         0.696090         1.146294
 H         0.199747        -1.478935         0.856425
 H        -0.667288         0.027851         0.828444
 H        -0.493751        -1.167196        -0.654858
 H         2.911638        -1.480964         0.501681
 H         2.459215        -1.661401        -1.183553
 H         5.125106         1.190589        -1.305618
 H         5.217165        -0.056331         0.082842
 H         5.197550        -0.509214        -1.678060
 H         0.941647         1.974430        -1.376542
 H         3.160044         2.308481         0.407312
