19
Iteration:   901charge 0 multiplicity 1
 C        -0.038507        -0.667948         0.009864
 C         1.321713        -0.062540        -0.064691
 C         2.464565        -0.994102        -0.336102
 C         3.419465         0.317520        -0.787373
 C         4.911247         0.198350        -1.098791
 O         2.586596         0.907250        -1.909341
 C         1.687079         1.258822        -0.944381
 C         2.757821         1.319089         0.201215
 O         1.794111         0.679352         1.142231
 H        -0.109559        -1.258164         1.016667
 H        -0.827295         0.119912         0.101421
 H        -0.438033        -1.383654        -0.745071
 H         2.907443        -1.443675         0.591253
 H         2.515543        -1.539266        -1.225461
 H         5.410135         1.103826        -1.152984
 H         5.382410        -0.568931        -0.336592
 H         5.026983        -0.241318        -2.076814
 H         0.881433         1.993123        -1.030094
 H         3.218988         2.240587         0.465248
