19
Iteration:   505charge 0 multiplicity 1
 C        -0.009728        -0.676627         0.089049
 C         1.344010        -0.070972        -0.004374
 C         2.518282        -0.986218        -0.437254
 C         3.372035         0.327692        -0.767050
 C         4.841387         0.248868        -1.062320
 O         2.675868         0.847230        -1.963718
 C         1.690102         1.355484        -0.977230
 C         2.645005         1.342888         0.225917
 O         1.827356         0.609798         1.160266
 H        -0.171527        -1.311232         0.967721
 H        -0.880806        -0.014580         0.152340
 H        -0.306756        -1.301089        -0.839488
 H         2.827696        -1.721537         0.320022
 H         2.152064        -1.570669        -1.361171
 H         5.411098         1.215409        -0.886179
 H         5.162391        -0.516914        -0.361722
 H         5.073019        -0.020643        -2.134118
 H         1.019287         2.083939        -1.424510
 H         3.194044         2.187872         0.714900
