19
Iteration:  2638charge 0 multiplicity 1
 C        -0.057022        -0.641629         0.262410
 C         1.307238        -0.078295        -0.019366
 C         2.470644        -1.004958        -0.526737
 C         3.352050         0.270891        -0.832965
 C         4.872224         0.171258        -0.817560
 O         2.652451         0.901583        -2.063363
 C         1.592719         1.235767        -0.995296
 C         2.681427         1.388067         0.060266
 O         1.959479         0.692066         1.142734
 H        -0.147621        -1.688287         0.549426
 H        -0.636531        -0.004848         1.061514
 H        -0.538863        -0.581826        -0.770410
 H         2.939060        -1.587396         0.206645
 H         2.223884        -1.357824        -1.586689
 H         5.504466         1.028324        -0.839106
 H         5.076447        -0.265699         0.141833
 H         5.262202        -0.569288        -1.570760
 H         0.955596         2.097165        -1.390574
 H         3.282838         2.174990         0.443106
