19
Iteration:  1576charge 0 multiplicity 1
 C        -0.065355        -0.656047         0.044350
 C         1.277378        -0.081376        -0.040328
 C         2.549447        -0.888959        -0.309456
 C         3.426260         0.285738        -0.823176
 C         4.892154         0.187168        -1.099688
 O         2.632209         0.876577        -1.977863
 C         1.655915         1.226895        -0.981101
 C         2.617562         1.378981         0.170821
 O         1.854154         0.633443         1.224951
 H        -0.011474        -1.349509         0.930796
 H        -0.754739         0.212687         0.248550
 H        -0.352636        -1.262935        -0.776009
 H         2.996992        -1.465726         0.664988
 H         2.431478        -1.640297        -1.047203
 H         5.277896         1.056925        -1.554637
 H         5.398687         0.059277        -0.123422
 H         5.146841        -0.689455        -1.715187
 H         0.969935         2.040176        -1.345711
 H         3.213957         2.285409         0.318328
