19
Iteration:  2821
 C         0.045967        -0.737732         0.327832
 C         1.278432        -0.042696        -0.059786
 C         2.415876        -0.916269        -0.484749
 C         3.372291         0.319186        -0.792066
 C         4.909180         0.069778        -0.822396
 O         2.665945         0.952651        -2.033349
 C         1.670045         1.234641        -1.056409
 C         2.666809         1.371833         0.088184
 O         1.809001         0.715327         1.060038
 H         0.286685        -1.535513         0.925634
 H        -0.521052        -0.021880         0.938202
 H        -0.564602        -0.964445        -0.563596
 H         2.849770        -1.611383         0.262679
 H         2.344615        -1.549372        -1.411310
 H         5.412034         0.998974        -1.149633
 H         5.499223        -0.209716         0.036969
 H         4.912487        -0.720367        -1.724909
 H         0.945835         2.039032        -1.443335
 H         3.270743         2.144911         0.378085
