19
Iteration:   869charge 0 multiplicity 1
 C        -0.053983        -0.688067         0.014763
 C         1.356483        -0.044126        -0.031849
 C         2.531034        -0.899912        -0.378499
 C         3.389274         0.343265        -0.752602
 C         4.845835         0.125130        -1.183835
 O         2.684917         0.874846        -1.922639
 C         1.711883         1.236262        -0.994203
 C         2.612212         1.432496         0.294290
 O         1.802909         0.655677         1.235965
 H        -0.364800        -1.337974         0.930343
 H        -0.833252         0.124497        -0.083330
 H        -0.281007        -1.438794        -0.762461
 H         3.047732        -1.650722         0.381666
 H         2.410004        -1.447556        -1.295745
 H         5.569319         0.848235        -1.247077
 H         5.443331        -0.667232        -0.517649
 H         4.878325        -0.357844        -2.145608
 H         0.920438         1.857437        -1.424245
 H         3.034410         2.363668         0.634014
