19
Iteration:  2024charge 0 multiplicity 1
 C        -0.166942        -0.655897         0.116164
 C         1.297999        -0.017772        -0.109048
 C         2.528396        -0.943960        -0.457183
 C         3.380508         0.311009        -0.841106
 C         4.928975         0.188232        -1.161685
 O         2.606738         0.869582        -1.925263
 C         1.755198         1.301587        -0.879154
 C         2.664717         1.371967         0.275330
 O         1.850002         0.557526         1.196114
 H        -0.268279        -1.329820         0.993581
 H        -0.825968         0.225826         0.160381
 H        -0.446538        -1.262238        -0.802804
 H         3.043702        -1.400112         0.557537
 H         2.543410        -1.584190        -1.304909
 H         5.509904         1.122735        -1.042089
 H         5.458988        -0.458517        -0.431988
 H         5.106434        -0.231532        -2.082183
 H         1.016502         1.996389        -1.138851
 H         3.226110         2.259536         0.530349
