19
Iteration:   973
 C        -0.075187        -0.603959         0.252080
 C         1.308055        -0.124896        -0.032351
 C         2.560464        -0.927569        -0.527596
 C         3.377081         0.311478        -0.873555
 C         4.858329         0.168214        -0.887055
 O         2.651238         0.925224        -1.951214
 C         1.642882         1.253804        -0.990951
 C         2.678197         1.351930         0.105931
 O         1.872928         0.577886         1.093332
 H        -0.062527        -1.565688         0.710059
 H        -0.723852        -0.004625         0.896187
 H        -0.771062        -0.772127        -0.648027
 H         2.911387        -1.456736         0.342056
 H         2.302886        -1.522906        -1.528569
 H         5.313520         1.182851        -1.379870
 H         5.071313         0.281230         0.123748
 H         5.416226        -0.775820        -1.230322
 H         1.034842         2.014062        -1.511983
 H         3.266324         2.254785         0.479619
