19
Iteration:  4199
 C        -0.055465        -0.790923         0.205086
 C         1.220361        -0.089190        -0.022866
 C         2.490263        -0.903931        -0.451348
 C         3.388910         0.324764        -0.804564
 C         4.869333         0.124173        -0.988511
 O         2.742797         0.925171        -1.980185
 C         1.658920         1.289181        -0.948054
 C         2.678393         1.447106         0.197186
 O         1.868579         0.647167         1.014693
 H         0.110947        -1.383367         1.147211
 H        -0.914021        -0.204791         0.456492
 H        -0.408248        -1.412993        -0.594109
 H         2.815565        -1.447176         0.446635
 H         2.283002        -1.567453        -1.282661
 H         5.160354         1.131634        -1.136405
 H         5.339129        -0.108590         0.051883
 H         5.117822        -0.455842        -1.898091
 H         0.997844         1.950347        -1.385303
 H         3.053301         2.365926         0.482048
