19
Iteration:   555
 C        -0.009112        -0.663959         0.031574
 C         1.319040        -0.091167        -0.004701
 C         2.594824        -0.887345        -0.482792
 C         3.374429         0.309658        -0.853380
 C         4.834105         0.126626        -1.101553
 O         2.661096         0.930589        -1.897376
 C         1.713215         1.257768        -0.925188
 C         2.606904         1.393805         0.275101
 O         1.777296         0.604501         1.193138
 H        -0.294089        -1.401860         0.802790
 H        -0.952075        -0.001502         0.278030
 H        -0.085721        -1.113001        -0.902712
 H         3.180149        -1.219159         0.505266
 H         2.528489        -1.635169        -1.210317
 H         5.297881         1.065959        -1.374882
 H         5.408189        -0.326797        -0.207705
 H         4.874701        -0.584054        -1.929893
 H         0.992968         1.889980        -1.478496
 H         3.174087         2.257783         0.612256
