19
Iteration:  1560charge 0 multiplicity 1
 C        -0.032779        -0.562237         0.026055
 C         1.402158        -0.102651         0.019708
 C         2.607265        -0.925432        -0.378971
 C         3.412529         0.335793        -0.726032
 C         4.848500         0.195492        -1.085333
 O         2.558940         0.763546        -1.934719
 C         1.622148         1.210720        -0.931110
 C         2.667809         1.380711         0.212485
 O         1.830382         0.654054         1.106810
 H        -0.385354        -1.242497         0.840119
 H        -0.640948         0.306272        -0.091704
 H        -0.122941        -0.936693        -1.045591
 H         2.950370        -1.355953         0.465158
 H         2.539441        -1.622022        -1.288072
 H         5.159779         1.042427        -1.811306
 H         5.588478         0.244340        -0.271730
 H         4.881839        -0.770302        -1.637797
 H         0.746751         1.814772        -1.162787
 H         3.063283         2.279961         0.704821
