19
Iteration:  3159charge 0 multiplicity 1
 C        -0.086905        -0.707354         0.339079
 C         1.343034        -0.107014        -0.098418
 C         2.444056        -0.874189        -0.587789
 C         3.415495         0.262749        -0.826259
 C         4.859868         0.087525        -0.828567
 O         2.686186         0.986010        -1.995401
 C         1.645954         1.222311        -1.053350
 C         2.586070         1.394613         0.143761
 O         1.926484         0.668231         1.087522
 H         0.062434        -1.408959         1.137419
 H        -0.618783         0.288290         0.648323
 H        -0.571200        -1.216089        -0.502576
 H         2.864499        -1.461900         0.236864
 H         2.290461        -1.621962        -1.421466
 H         5.368688         1.084117        -0.573629
 H         5.189540        -0.551273        -0.068093
 H         5.299472        -0.102378        -1.830316
 H         0.800762         1.947118        -1.329490
 H         3.363387         2.070813         0.249553
