19
Iteration:  2646charge 0 multiplicity 1
 C        -0.063286        -0.659540         0.241131
 C         1.351632        -0.067622         0.081396
 C         2.475287        -0.957241        -0.557157
 C         3.393691         0.264947        -0.824055
 C         4.828078         0.143426        -0.750428
 O         2.630354         0.934342        -2.050136
 C         1.661241         1.253405        -1.058346
 C         2.680012         1.399612         0.084385
 O         1.938215         0.671573         1.089083
 H         0.049175        -1.688209         0.651407
 H        -0.494360        -0.047413         1.049315
 H        -0.739058        -0.550662        -0.667872
 H         2.822778        -1.805250         0.026857
 H         2.159636        -1.423389        -1.479509
 H         5.419392         1.021997        -1.099947
 H         5.116806        -0.347314         0.138177
 H         5.048051        -0.600158        -1.587970
 H         0.706849         1.760808        -1.381871
 H         3.241022         2.302590         0.211206
