19
Iteration:   667charge 0 multiplicity 1
 C        -0.049980        -0.636988         0.115179
 C         1.324895        -0.102964        -0.015048
 C         2.506401        -0.922814        -0.545893
 C         3.413586         0.360081        -0.781807
 C         4.869012         0.172049        -1.003825
 O         2.693371         0.935658        -1.978289
 C         1.620503         1.157866        -0.892643
 C         2.626374         1.334170         0.224504
 O         1.838604         0.640720         1.141908
 H        -0.204475        -1.265377         0.981594
 H        -0.754142         0.259307         0.225851
 H        -0.253313        -1.058252        -0.934158
 H         2.970557        -1.364467         0.362378
 H         2.536556        -1.675437        -1.352686
 H         5.584170         1.044483        -1.138410
 H         5.259340        -0.514362        -0.291285
 H         4.919762        -0.297735        -2.014559
 H         0.905379         1.897372        -1.201073
 H         3.136371         2.252012         0.630914
