19
Iteration:   561
 C        -0.044474        -0.648271         0.047003
 C         1.372528        -0.064863        -0.038623
 C         2.609396        -0.856617        -0.486165
 C         3.384947         0.319576        -0.819373
 C         4.801682         0.094469        -1.089219
 O         2.688123         0.915684        -1.916442
 C         1.644958         1.237056        -0.908724
 C         2.606420         1.358264         0.276593
 O         1.808693         0.616426         1.188081
 H        -0.047337        -1.513163         0.759111
 H        -0.755091         0.082233         0.213204
 H        -0.202522        -1.186735        -0.996279
 H         3.035030        -1.177401         0.381635
 H         2.394947        -1.650240        -1.312817
 H         5.141804         1.144082        -1.296667
 H         5.363257        -0.142764        -0.228362
 H         5.010998        -0.665007        -1.884369
 H         0.890082         1.887936        -1.373259
 H         3.056557         2.269294         0.709443
