19
Iteration:   276
 C        -0.084439        -0.707665         0.256778
 C         1.308328        -0.111516        -0.052742
 C         2.547884        -0.979247        -0.596307
 C         3.378336         0.325729        -0.832718
 C         4.917814         0.206189        -0.868634
 O         2.641489         0.935012        -1.951173
 C         1.652966         1.220760        -1.023135
 C         2.608816         1.346638         0.146266
 O         1.876590         0.710446         1.103825
 H        -0.079240        -1.581185         0.937251
 H        -0.820329        -0.003369         0.817705
 H        -0.578277        -1.058229        -0.646274
 H         3.171724        -1.576122         0.188130
 H         2.375449        -1.621955        -1.485337
 H         5.336154         1.063290        -0.325934
 H         5.423326        -0.696415        -0.313822
 H         5.212545         0.126755        -1.883101
 H         0.899236         1.945778        -1.449130
 H         3.154775         2.303568         0.448703
