19
Iteration:  4135charge 0 multiplicity 1
 C        -0.116084        -0.672028         0.146499
 C         1.324204        -0.115841        -0.046081
 C         2.444875        -0.941358        -0.468962
 C         3.388546         0.353194        -0.746110
 C         4.871750         0.272795        -0.956874
 O         2.700343         0.828149        -1.982462
 C         1.595465         1.202984        -1.041686
 C         2.650890         1.336365         0.122313
 O         1.949910         0.664168         1.187908
 H        -0.117195        -1.504769         0.833937
 H        -0.757786         0.082458         0.626006
 H        -0.554224        -0.811566        -0.841991
 H         2.883556        -1.388513         0.488791
 H         2.437260        -1.538700        -1.408467
 H         5.458420         1.135333        -0.830371
 H         5.526643        -0.467783        -0.327153
 H         5.092088        -0.017147        -2.012428
 H         0.937939         2.029185        -1.295134
 H         3.117063         2.203155         0.460210
