19
Iteration:  3833charge 0 multiplicity 1
 C        -0.040787        -0.605347         0.199716
 C         1.352174        -0.062458        -0.142118
 C         2.508069        -0.932653        -0.601717
 C         3.317978         0.329380        -0.786679
 C         4.818581         0.247346        -0.836267
 O         2.572106         0.867663        -1.994703
 C         1.692843         1.268558        -0.917679
 C         2.745076         1.305540         0.155903
 O         1.919078         0.556589         1.118454
 H        -0.195332        -1.406242         0.918498
 H        -0.735735         0.200608         0.653810
 H        -0.683949        -0.938658        -0.637864
 H         2.767724        -1.678082         0.148963
 H         2.392610        -1.361431        -1.555311
 H         5.468789         1.063546        -1.344704
 H         5.155952         0.058893         0.190849
 H         5.310377        -0.613503        -1.423044
 H         0.889464         1.980211        -1.294682
 H         3.387047         2.135245         0.594128
