19
Iteration:  1880
 C        -0.077550        -0.656588        -0.092854
 C         1.291915        -0.026137        -0.047001
 C         2.592028        -0.930771        -0.404945
 C         3.428307         0.276856        -0.862520
 C         4.919060         0.133952        -1.227778
 O         2.556638         0.829958        -1.869295
 C         1.654380         1.236041        -0.896384
 C         2.679488         1.405584         0.361572
 O         1.819186         0.705299         1.262042
 H        -0.086017        -1.466895         0.643036
 H        -0.666625         0.263211         0.096691
 H        -0.314319        -1.115858        -0.966856
 H         2.933237        -1.161717         0.711514
 H         2.504558        -1.823299        -1.047420
 H         5.330659         1.049554        -1.420693
 H         5.506846        -0.324460        -0.406920
 H         5.085517        -0.459004        -2.152687
 H         0.796609         1.869028        -1.363047
 H         3.381159         2.175806         0.759764
