19
Iteration:  3551charge 0 multiplicity 1
 C        -0.092294        -0.693286         0.051252
 C         1.313939        -0.062020         0.012164
 C         2.447633        -0.867278        -0.469573
 C         3.388866         0.364939        -0.718794
 C         4.928615         0.124637        -1.145407
 O         2.711248         0.934542        -1.891791
 C         1.697274         1.185877        -0.967702
 C         2.664568         1.376436         0.186843
 O         1.835632         0.589990         1.212566
 H        -0.127327        -1.477759         0.777171
 H        -0.798853         0.151824         0.222041
 H        -0.454635        -1.006882        -0.895759
 H         2.848802        -1.552007         0.331965
 H         2.212443        -1.411814        -1.362471
 H         5.379315         1.098925        -1.197780
 H         5.445787        -0.531676        -0.575256
 H         4.866679        -0.090647        -2.189455
 H         0.899690         1.913422        -1.240474
 H         3.141162         2.197998         0.711468
