19
Iteration:  1127charge 0 multiplicity 1
 C        -0.082864        -0.689569         0.264218
 C         1.275047        -0.018850        -0.137349
 C         2.461110        -0.971432        -0.547614
 C         3.342247         0.297759        -0.863234
 C         4.898840         0.156099        -0.823166
 O         2.683219         0.940476        -2.015620
 C         1.618931         1.211298        -0.973209
 C         2.682689         1.376396         0.080537
 O         1.944969         0.666399         1.159814
 H         0.188740        -1.630305         0.821949
 H        -0.703294        -0.091095         0.858895
 H        -0.676422        -1.163074        -0.554021
 H         2.948716        -1.359221         0.426277
 H         2.322229        -1.820048        -1.228996
 H         5.181276         1.155481        -1.229945
 H         5.262178         0.048237         0.091604
 H         5.196511        -0.498908        -1.647797
 H         0.921917         2.039120        -1.316510
 H         3.298966         2.109730         0.550433
