19
Iteration:   710charge 0 multiplicity 1
 C        -0.068072        -0.719420         0.059313
 C         1.300332         0.026806        -0.062936
 C         2.567959        -0.815083        -0.384005
 C         3.403431         0.292673        -0.766047
 C         4.865249         0.135028        -1.135864
 O         2.678155         0.854509        -1.908494
 C         1.667858         1.282425        -0.881087
 C         2.677182         1.253079         0.218572
 O         1.794072         0.680720         1.182584
 H        -0.123542        -1.589441         0.694794
 H        -1.065443        -0.243212        -0.300692
 H         0.158853        -1.170736        -0.974879
 H         2.763281        -1.323502         0.579929
 H         2.301820        -1.359895        -1.292211
 H         5.325590         1.173404        -1.358889
 H         5.528006        -0.511930        -0.609202
 H         4.783998        -0.202748        -2.209705
 H         0.856398         1.963014        -1.074465
 H         3.290510         2.074415         0.686175
