19
Iteration:   154
 C        -0.102352        -0.646353         0.142505
 C         1.304397        -0.075353        -0.041426
 C         2.534271        -0.886496        -0.529419
 C         3.420568         0.235939        -0.843305
 C         4.937181         0.215468        -0.939872
 O         2.703922         0.961834        -1.982787
 C         1.540257         1.205687        -0.936660
 C         2.692114         1.316823         0.147260
 O         1.831166         0.595825         1.175410
 H         0.014362        -1.422668         0.942384
 H        -0.822763         0.161873         0.580160
 H        -0.555461        -1.170364        -0.685280
 H         2.971633        -1.529063         0.339969
 H         2.404965        -1.422338        -1.425631
 H         5.115047         0.438716        -1.982490
 H         5.389358         1.131424        -0.343971
 H         5.470225        -0.668366        -0.667790
 H         0.760705         1.798880        -1.360135
 H         3.116284         2.205190         0.619058
