19
Iteration:   236charge 0 multiplicity 1
 C        -0.152352        -0.738646         0.083137
 C         1.312750        -0.037680        -0.101408
 C         2.565874        -0.881015        -0.463208
 C         3.440059         0.288142        -0.759938
 C         4.910900         0.190927        -1.067883
 O         2.598798         0.859882        -1.876392
 C         1.684207         1.252639        -0.952625
 C         2.645884         1.397714         0.207900
 O         1.856174         0.661810         1.174480
 H         0.059384        -1.554579         0.754953
 H        -0.893681        -0.102637         0.373509
 H        -0.310950        -1.161430        -0.963473
 H         2.833521        -1.289577         0.452141
 H         2.659290        -1.706904        -1.250744
 H         5.357416         1.185944        -1.301631
 H         5.371781        -0.230901        -0.265997
 H         5.064499        -0.494609        -1.976973
 H         0.872905         1.872048        -1.415379
 H         3.158055         2.309371         0.568624
