19
Iteration:  4848
 C        -0.067793        -0.597746         0.118879
 C         1.286416        -0.087096        -0.053594
 C         2.413843        -1.006835        -0.526729
 C         3.419770         0.332285        -0.753185
 C         4.957895         0.265258        -1.001060
 O         2.679250         0.891116        -1.958582
 C         1.640127         1.239773        -0.954796
 C         2.633532         1.304474         0.159481
 O         1.888773         0.614028         1.202165
 H        -0.232755        -1.422507         0.881293
 H        -0.767328         0.105538         0.485084
 H        -0.440047        -0.825400        -0.884742
 H         2.774669        -1.469724         0.415019
 H         2.362504        -1.639347        -1.402765
 H         5.567016         1.158489        -0.966583
 H         5.583848        -0.477638        -0.383892
 H         5.181701        -0.217968        -2.025752
 H         0.818702         1.815860        -1.168606
 H         3.001408         2.323889         0.378510
