19
Iteration:  1381charge 0 multiplicity 1
 C        -0.082555        -0.555246         0.015054
 C         1.323121        -0.130748         0.003334
 C         2.528814        -0.983743        -0.327412
 C         3.419631         0.276240        -0.755896
 C         4.886743         0.215132        -1.117663
 O         2.618400         0.835519        -1.935090
 C         1.639555         1.203393        -0.927110
 C         2.619998         1.378177         0.189688
 O         1.889808         0.666552         1.135150
 H        -0.334557        -1.318045         0.742831
 H        -0.672129         0.393527         0.110959
 H        -0.021222        -0.975573        -0.948390
 H         2.865943        -1.339911         0.684253
 H         2.523242        -1.727308        -1.022505
 H         5.031042         1.097623        -1.683910
 H         5.669470         0.283828        -0.252455
 H         5.258433        -0.591512        -1.768338
 H         0.847443         1.786125        -1.396998
 H         3.017632         2.350201         0.468621
