19
Iteration:  1490
 C         0.014653        -0.725691         0.245630
 C         1.285273        -0.085687        -0.175849
 C         2.511429        -0.926099        -0.597256
 C         3.369140         0.285043        -0.792575
 C         4.916267         0.178598        -0.923934
 O         2.645977         0.792486        -2.001740
 C         1.654214         1.259495        -0.953229
 C         2.581230         1.403672         0.190391
 O         1.877742         0.750945         1.155190
 H         0.042704        -1.506125         0.999984
 H        -0.587663         0.186065         0.623533
 H        -0.661326        -0.947290        -0.557871
 H         2.730347        -1.345384         0.450797
 H         2.350424        -1.640677        -1.302876
 H         5.410339         1.112105        -1.013132
 H         5.340463        -0.260913         0.084205
 H         5.166654        -0.511902        -1.740248
 H         1.011784         2.081506        -1.310607
 H         3.172357         2.300346         0.474665
