19
Iteration:  4471
 C         0.014066        -0.694404         0.186800
 C         1.300488        -0.000911        -0.085317
 C         2.479747        -0.806723        -0.446703
 C         3.406063         0.274614        -0.798108
 C         4.831602         0.101303        -0.954407
 O         2.618846         0.957965        -1.995804
 C         1.658065         1.237126        -1.004599
 C         2.629243         1.323804         0.205504
 O         1.904390         0.575230         1.077449
 H         0.265369        -1.631212         0.741502
 H        -0.645048        -0.140467         0.858017
 H        -0.638190        -0.853211        -0.654590
 H         2.915511        -1.386849         0.373123
 H         2.362537        -1.469788        -1.283397
 H         5.204852         0.894669        -1.588053
 H         5.346300         0.509553         0.033099
 H         5.323951        -0.898680        -1.072609
 H         0.836109         1.843052        -1.361156
 H         3.166419         2.221199         0.491624
