19
Iteration:  2442
 C        -0.162703        -0.563500         0.079096
 C         1.269389        -0.113446         0.042999
 C         2.477327        -0.923578        -0.497553
 C         3.444718         0.373463        -0.818911
 C         4.916082         0.233339        -1.016814
 O         2.591578         0.828296        -1.961274
 C         1.701062         1.180979        -0.979823
 C         2.745290         1.316620         0.177663
 O         1.898804         0.621615         1.218750
 H        -0.081292        -1.509170         0.431921
 H        -0.723968         0.141464         0.728010
 H        -0.673945        -0.567169        -0.864988
 H         2.868970        -1.449528         0.317283
 H         2.368085        -1.619223        -1.415643
 H         5.356831         1.219243        -1.187612
 H         5.408920        -0.220507        -0.161990
 H         5.103869        -0.538177        -1.856857
 H         0.897334         1.938374        -1.333735
 H         3.277872         2.191939         0.478533
