19
Iteration:   962
 C        -0.093619        -0.608708         0.263349
 C         1.297914        -0.102016        -0.039469
 C         2.551988        -0.913642        -0.542225
 C         3.399763         0.292975        -0.791259
 C         4.876435         0.205256        -0.831796
 O         2.596063         0.897423        -2.062245
 C         1.700339         1.272221        -1.042728
 C         2.644567         1.290651         0.165786
 O         1.882544         0.596525         1.109345
 H        -0.057920        -1.527883         0.792680
 H        -0.431145         0.198994         0.911679
 H        -0.639996        -0.673342        -0.734410
 H         3.068357        -1.637255         0.055929
 H         2.476314        -1.477387        -1.581219
 H         5.321352         1.129707        -1.460732
 H         5.282134         0.229555         0.119089
 H         5.216580        -0.740866        -1.407830
 H         0.850731         1.974223        -1.204987
 H         3.067335         2.212559         0.660438
