19
Iteration:  2507charge 0 multiplicity 1
 C        -0.084035        -0.710974         0.232184
 C         1.346891        -0.071028        -0.029749
 C         2.418952        -0.878238        -0.611161
 C         3.367091         0.316840        -0.785885
 C         4.982682         0.084387        -0.894494
 O         2.645356         0.929282        -1.942448
 C         1.647023         1.269657        -0.921469
 C         2.680282         1.394083         0.064610
 O         1.880218         0.641086         1.115343
 H         0.020444        -1.334792         1.063240
 H        -0.870749         0.039517         0.529803
 H        -0.625488        -1.298965        -0.505155
 H         2.722541        -1.594192         0.110744
 H         2.092369        -1.454137        -1.600969
 H         5.280178         1.082242        -1.178861
 H         5.407923        -0.282773        -0.002103
 H         5.358051        -0.635623        -1.724073
 H         0.995441         2.107244        -1.391731
 H         3.247983         2.228150         0.373706
