19
Iteration:  1498
 C        -0.011720        -0.656106         0.178215
 C         1.274852        -0.058308        -0.169033
 C         2.531033        -0.928196        -0.497134
 C         3.382598         0.250594        -0.818411
 C         4.844611         0.221728        -0.951586
 O         2.636450         0.813528        -1.936369
 C         1.694030         1.265192        -0.993285
 C         2.666903         1.346567         0.184044
 O         1.858899         0.717098         1.155298
 H         0.084821        -1.504189         0.923955
 H        -0.590093         0.011912         0.795288
 H        -0.571628        -1.162835        -0.603062
 H         2.889797        -1.443742         0.515964
 H         2.401898        -1.777067        -1.223416
 H         5.187637         1.223621        -1.252251
 H         5.156645        -0.101002        -0.026809
 H         5.196160        -0.549348        -1.699405
 H         0.962376         2.052718        -1.403323
 H         3.111777         2.299613         0.361466
