19
Iteration:  4648
 C        -0.002721        -0.748757         0.219236
 C         1.272477        -0.070809        -0.047144
 C         2.479748        -0.989624        -0.488826
 C         3.452846         0.345752        -0.820980
 C         4.830292         0.076003        -1.017591
 O         2.755604         1.051224        -1.935331
 C         1.641820         1.231197        -1.003797
 C         2.547985         1.358294         0.173717
 O         1.858126         0.700838         1.142251
 H         0.025256        -1.650594         0.757053
 H        -0.814024        -0.015435         0.644010
 H        -0.398660        -1.104868        -0.780460
 H         2.726332        -1.753880         0.256821
 H         2.349229        -1.434832        -1.494479
 H         5.519220         0.908278        -1.497634
 H         5.193066         0.047818         0.031536
 H         5.159311        -0.869533        -1.511580
 H         0.880661         2.075133        -1.221118
 H         3.214768         2.185558         0.420083
