19
Iteration:  2201
 C        -0.079740        -0.743387         0.017434
 C         1.303737        -0.003878        -0.029405
 C         2.437025        -0.869457        -0.500105
 C         3.477799         0.308188        -0.737535
 C         4.897048         0.130121        -1.160023
 O         2.585171         0.957444        -1.845770
 C         1.649935         1.202487        -0.843659
 C         2.722379         1.340470         0.227756
 O         1.900105         0.641499         1.157020
 H        -0.303170        -1.254667         0.955464
 H        -0.804436         0.091350         0.002379
 H        -0.321228        -1.320928        -0.942511
 H         2.699628        -1.521473         0.326856
 H         2.288474        -1.453549        -1.413254
 H         5.508002         1.052524        -1.370986
 H         5.328102        -0.494798        -0.415494
 H         5.086844        -0.457994        -2.038782
 H         0.965019         1.952066        -1.238273
 H         3.233689         2.289410         0.561236
