19
Iteration:   982
 C        -0.096338        -0.670883         0.231602
 C         1.330709        -0.063105        -0.102259
 C         2.474332        -0.949026        -0.501650
 C         3.373355         0.292119        -0.896189
 C         4.889257         0.198503        -0.906343
 O         2.711926         0.933924        -1.907867
 C         1.590775         1.228224        -0.951248
 C         2.673089         1.396916         0.121700
 O         1.902906         0.602734         1.078903
 H        -0.034183        -1.620387         0.755665
 H        -0.719721         0.018366         0.935549
 H        -0.579032        -0.789167        -0.770463
 H         2.740260        -1.455273         0.414294
 H         2.289426        -1.768306        -1.323864
 H         5.451413         1.072554        -1.436040
 H         5.118482         0.204255         0.099118
 H         5.191031        -0.799738        -1.305629
 H         0.792842         1.939544        -1.232531
 H         3.435440         2.256024         0.264184
