19
Iteration:  4752
 C        -0.022103        -0.578040         0.102362
 C         1.326529        -0.088960        -0.086504
 C         2.508398        -0.888447        -0.467899
 C         3.441584         0.240594        -0.781804
 C         4.845100         0.187574        -1.075413
 O         2.608613         0.880227        -1.933246
 C         1.675291         1.209357        -0.875339
 C         2.695693         1.347767         0.291570
 O         1.801071         0.616169         1.061263
 H         0.014719        -1.229845         1.068399
 H        -0.747203         0.201022         0.208198
 H        -0.221497        -1.055600        -0.825641
 H         2.960350        -1.491144         0.374265
 H         2.479982        -1.477499        -1.390409
 H         5.216329         1.185500        -1.137179
 H         5.333975        -0.241031        -0.166425
 H         5.234693        -0.470220        -1.863315
 H         0.852193         1.882112        -1.092028
 H         3.014796         2.428251         0.580305
