19
Iteration:  2324charge 0 multiplicity 1
 C        -0.197281        -0.634713         0.315465
 C         1.275524        -0.096376        -0.017366
 C         2.472105        -0.904536        -0.601120
 C         3.378977         0.329788        -0.914762
 C         4.882287         0.230173        -0.844376
 O         2.694192         0.948844        -2.039262
 C         1.625946         1.297714        -0.981564
 C         2.734408         1.288951         0.130580
 O         1.953057         0.511360         1.108782
 H        -0.022722        -1.419894         1.146072
 H        -0.715499         0.373977         0.548910
 H        -0.695674        -1.171104        -0.481347
 H         2.783873        -1.511581         0.172133
 H         2.323347        -1.441432        -1.628193
 H         5.385435         1.155440        -0.778082
 H         5.176248        -0.306879         0.054529
 H         5.461946        -0.407848        -1.578335
 H         0.908624         2.154229        -1.285737
 H         3.319090         1.914090         0.754477
