19
Iteration:  2226charge 0 multiplicity 1
 C         0.003586        -0.716132        -0.085946
 C         1.360645         0.012416        -0.001628
 C         2.558602        -0.940396        -0.423518
 C         3.382804         0.325029        -0.764902
 C         4.774311         0.064566        -1.248102
 O         2.634891         0.879065        -1.947082
 C         1.695906         1.351878        -0.815093
 C         2.697764         1.402771         0.331358
 O         1.775258         0.633986         1.255108
 H        -0.048626        -1.486161         0.712938
 H        -0.808129         0.041017         0.145930
 H        -0.204354        -1.061613        -1.047127
 H         3.084711        -1.361357         0.399472
 H         2.440083        -1.764676        -1.309397
 H         5.198809         0.931923        -1.606946
 H         5.365290        -0.375096        -0.482263
 H         4.950731        -0.644069        -2.078686
 H         0.909258         2.101374        -1.209945
 H         3.205940         2.248293         0.742863
