19
Iteration:  4562
 C        -0.128700        -0.541804         0.083488
 C         1.312306        -0.130188        -0.043813
 C         2.557224        -0.964867        -0.467843
 C         3.416018         0.330661        -0.674683
 C         4.948835         0.298758        -1.134919
 O         2.611157         0.755338        -1.974018
 C         1.735092         1.163545        -0.873666
 C         2.669863         1.366236         0.171225
 O         1.796833         0.638660         1.187469
 H        -0.158859        -0.895821         1.080798
 H        -0.757292         0.434232        -0.086135
 H        -0.445737        -1.289777        -0.692429
 H         2.932379        -1.650800         0.297322
 H         2.397920        -1.544385        -1.396889
 H         5.376681         1.305291        -0.767956
 H         5.462578        -0.532718        -0.670936
 H         4.813125         0.273937        -2.218480
 H         0.895102         1.874305        -1.082205
 H         3.170942         2.280510         0.499204
