19
Iteration:  4536charge 0 multiplicity 1
 C        -0.077170        -0.592932         0.175975
 C         1.281583        -0.047803        -0.075497
 C         2.536863        -0.978880        -0.433990
 C         3.378659         0.344742        -0.796377
 C         4.928006         0.254781        -1.071011
 O         2.643226         0.853521        -1.904723
 C         1.664210         1.238014        -1.002314
 C         2.647989         1.319743         0.190120
 O         1.876818         0.593223         1.115400
 H        -0.011086        -1.436490         0.873475
 H        -0.790124         0.158487         0.396707
 H        -0.289352        -0.954621        -0.815822
 H         2.939547        -1.309506         0.547065
 H         2.388313        -1.823394        -1.081643
 H         5.412272         1.218891        -0.995368
 H         5.177917        -0.443558        -0.227309
 H         4.959641        -0.231292        -2.057124
 H         0.829344         1.839539        -1.406220
 H         3.085044         2.216885         0.641032
