19
Iteration:  2738charge 0 multiplicity 1
 C        -0.111587        -0.581049        -0.049549
 C         1.340356        -0.016499         0.026306
 C         2.578258        -0.904128        -0.360229
 C         3.449108         0.285758        -0.731857
 C         4.895193         0.215212        -1.124229
 O         2.533341         0.701270        -1.928726
 C         1.646014         1.175908        -0.895281
 C         2.686731         1.367390         0.180539
 O         1.909341         0.703207         1.176243
 H        -0.634248        -0.977142         0.878805
 H        -0.626761         0.397679        -0.355912
 H        -0.156346        -1.262355        -0.906448
 H         2.685815        -1.503089         0.547854
 H         2.351862        -1.515360        -1.281120
 H         5.256353         1.171939        -1.444115
 H         5.548076        -0.237937        -0.329161
 H         5.088473        -0.372454        -1.980572
 H         0.854505         1.830420        -1.201493
 H         3.085008         2.315437         0.661597
