19
Iteration:   247
 C         0.020883        -0.664918         0.093959
 C         1.243317        -0.047998        -0.085003
 C         2.541930        -0.906154        -0.422882
 C         3.386152         0.377705        -0.784086
 C         4.893099         0.193279        -0.993752
 O         2.657611         0.850681        -1.943777
 C         1.605251         1.224644        -0.976606
 C         2.644589         1.334699         0.228219
 O         1.869876         0.638825         1.120869
 H         0.110869        -1.499353         0.783056
 H        -0.724454        -0.123120         0.522042
 H        -0.428266        -1.145686        -0.829279
 H         2.863902        -1.407153         0.432277
 H         2.352943        -1.609232        -1.309296
 H         5.467282         1.155378        -1.053482
 H         5.357862        -0.422175        -0.344473
 H         4.960735        -0.292888        -2.028434
 H         0.823430         1.969471        -1.277403
 H         3.096039         2.245566         0.643699
