19
Iteration:  1484charge 0 multiplicity 1
 C        -0.028020        -0.723954         0.295012
 C         1.308558        -0.098076        -0.134641
 C         2.476035        -0.909769        -0.558977
 C         3.424023         0.331770        -0.807346
 C         4.941568         0.125722        -0.873448
 O         2.642145         0.819760        -2.023417
 C         1.613248         1.241353        -0.983003
 C         2.588737         1.441621         0.141632
 O         1.862393         0.734338         1.139561
 H         0.178779        -1.526238         1.024110
 H        -0.548249         0.126614         0.657695
 H        -0.563952        -0.963030        -0.698718
 H         2.722834        -1.544314         0.287342
 H         2.382709        -1.521002        -1.613075
 H         5.563649         1.093463        -0.922723
 H         5.407538        -0.377767        -0.033602
 H         5.205441        -0.427956        -1.785530
 H         0.837377         1.963311        -1.237769
 H         3.190406         2.244936         0.597485
