19
Iteration:   889charge 0 multiplicity 1
 C        -0.065723        -0.652732         0.030619
 C         1.286406        -0.020805        -0.085099
 C         2.607763        -0.875071        -0.402698
 C         3.432221         0.238680        -0.780913
 C         4.901970         0.145964        -1.163548
 O         2.624893         0.859053        -1.868539
 C         1.659434         1.232707        -0.837578
 C         2.628541         1.381700         0.224596
 O         1.808589         0.683101         1.118033
 H        -0.156157        -1.224891         1.020451
 H        -0.867608         0.044641        -0.070668
 H         0.020206        -1.344937        -0.890559
 H         2.811875        -1.483127         0.470400
 H         2.243701        -1.633945        -1.081672
 H         5.423428         1.092835        -1.009103
 H         5.427286        -0.550606        -0.418734
 H         4.999481        -0.293531        -2.163009
 H         0.933974         1.963747        -1.203276
 H         3.161303         2.189593         0.623001
