19
Iteration:   750
 C        -0.104010        -0.593189         0.108279
 C         1.243488        -0.071458        -0.139466
 C         2.593091        -0.935041        -0.487741
 C         3.437515         0.316417        -0.804728
 C         4.917526         0.157556        -1.027816
 O         2.624794         0.883721        -1.931026
 C         1.590125         1.234223        -0.939967
 C         2.629040         1.362854         0.245785
 O         1.901486         0.605024         1.163487
 H        -0.130198        -1.474535         0.775940
 H        -0.707199         0.204276         0.579224
 H        -0.517667        -0.906448        -0.795678
 H         3.109352        -1.528531         0.349473
 H         2.600219        -1.608670        -1.303574
 H         5.278664         1.108133        -1.261158
 H         5.388736        -0.046810         0.016421
 H         5.219585        -0.616931        -1.710359
 H         0.859926         1.964243        -1.307868
 H         3.137028         2.263584         0.574594
