19
Iteration:  4796
 C        -0.029769        -0.782664         0.154953
 C         1.282056        -0.007191        -0.097870
 C         2.472032        -0.895585        -0.395267
 C         3.404626         0.343604        -0.828608
 C         4.838213         0.064590        -0.991116
 O         2.719311         0.995442        -1.937428
 C         1.688182         1.290517        -0.949215
 C         2.647450         1.400715         0.108237
 O         1.851851         0.578026         1.123949
 H         0.045977        -1.170820         1.229730
 H        -0.955957        -0.216347         0.063692
 H        -0.337293        -1.672925        -0.335193
 H         2.644967        -1.697933         0.393602
 H         2.152901        -1.341046        -1.345217
 H         5.422654         0.952955        -0.707895
 H         5.370530        -0.810008        -0.544049
 H         5.208981        -0.029691        -2.028046
 H         1.020956         2.194788        -1.140422
 H         2.999799         2.488181         0.502725
