19
Iteration:  4631charge 0 multiplicity 1
 C        -0.001573        -0.726233         0.158907
 C         1.376550        -0.041992        -0.087302
 C         2.463555        -0.856184        -0.560912
 C         3.375686         0.274354        -0.813629
 C         4.916343         0.061293        -0.967016
 O         2.648248         0.919095        -1.937933
 C         1.652153         1.270105        -0.951724
 C         2.645512         1.464940         0.229456
 O         1.791202         0.642107         1.141250
 H         0.332191        -1.400923         1.052650
 H        -0.713313        -0.011991         0.367235
 H        -0.285935        -1.395584        -0.648045
 H         2.936206        -1.433077         0.245664
 H         2.186401        -1.426064        -1.460196
 H         5.369496         0.956478        -1.247819
 H         5.434680        -0.406501        -0.134151
 H         5.123534        -0.621182        -1.817265
 H         0.839713         1.811501        -1.286281
 H         2.946530         2.434330         0.671087
