19
Iteration:  2899
 C        -0.143784        -0.552150         0.056118
 C         1.289426        -0.070622        -0.012487
 C         2.542226        -0.954240        -0.302430
 C         3.443252         0.225854        -0.744097
 C         4.888678         0.296368        -1.155826
 O         2.682402         0.777916        -2.011262
 C         1.742967         1.216973        -0.996447
 C         2.673880         1.272658         0.236729
 O         1.803353         0.701453         1.203598
 H        -0.362958        -1.182458         0.854411
 H        -0.837129         0.322812         0.174429
 H        -0.457247        -1.055033        -0.844390
 H         2.960322        -1.471089         0.558524
 H         2.418295        -1.831064        -1.043777
 H         5.128866         1.269440        -1.549779
 H         5.517929         0.211519        -0.255041
 H         4.878581        -0.467283        -2.065481
 H         0.968361         1.967351        -1.288694
 H         3.119138         2.178094         0.497810
