19
Iteration:  3153
 C        -0.081281        -0.691808         0.339587
 C         1.253651        -0.099940        -0.089875
 C         2.488055        -0.904394        -0.578429
 C         3.396447         0.297501        -0.856048
 C         4.898106         0.104897        -0.870239
 O         2.722865         1.005395        -2.005622
 C         1.653387         1.221628        -1.016562
 C         2.593007         1.366580         0.125830
 O         1.903166         0.665445         1.075733
 H         0.153506        -1.318576         1.284634
 H        -0.739312         0.040302         0.730208
 H        -0.596536        -1.251251        -0.447477
 H         2.823574        -1.298693         0.436553
 H         2.321313        -1.583068        -1.416875
 H         5.302885         1.022796        -0.462533
 H         5.095243        -0.743601        -0.103922
 H         5.344125        -0.330015        -1.783120
 H         0.859801         1.833186        -1.333041
 H         3.346435         2.204676         0.398993
