19
Iteration:  2517
 C        -0.025108        -0.710016         0.182359
 C         1.272006        -0.037849        -0.060351
 C         2.433847        -0.927927        -0.515895
 C         3.436727         0.272285        -0.776635
 C         4.920280         0.093709        -0.934133
 O         2.601093         0.990367        -1.940801
 C         1.632817         1.247615        -0.984296
 C         2.677841         1.335818         0.145794
 O         1.921822         0.686055         1.108133
 H        -0.034540        -1.296748         1.111620
 H        -0.796077         0.101562         0.156431
 H        -0.205938        -1.427025        -0.679502
 H         2.740960        -1.561767         0.309963
 H         2.107965        -1.489371        -1.505374
 H         5.496929         0.993691        -1.214166
 H         5.395072        -0.242351        -0.057997
 H         4.954091        -0.732303        -1.715104
 H         0.919767         2.156203        -1.043752
 H         3.217498         2.233490         0.367343
