19
Iteration:  2297charge 0 multiplicity 1
 C        -0.036038        -0.557529         0.243865
 C         1.350582        -0.031261        -0.100919
 C         2.461967        -0.999935        -0.627292
 C         3.375537         0.220192        -0.811397
 C         4.840615         0.266410        -0.870820
 O         2.630576         0.949776        -1.940790
 C         1.605359         1.224162        -0.933123
 C         2.720388         1.313715         0.110725
 O         1.900597         0.548828         1.109340
 H         0.096908        -1.465834         0.811781
 H        -0.466359         0.248046         0.808883
 H        -0.614507        -0.645490        -0.737469
 H         2.587805        -1.698011         0.317180
 H         2.287132        -1.529880        -1.494369
 H         5.298646         1.294971        -1.194924
 H         5.351515        -0.239522         0.001804
 H         5.271671        -0.380914        -1.652532
 H         0.848830         1.923245        -1.196259
 H         3.360477         2.119492         0.591811
