19
Iteration:  1915charge 0 multiplicity 1
 C        -0.024323        -0.723979        -0.003468
 C         1.350929        -0.057046         0.028019
 C         2.503398        -0.887352        -0.454014
 C         3.355949         0.326147        -0.800148
 C         4.745162         0.116884        -1.136377
 O         2.701442         0.905623        -1.878510
 C         1.683587         1.251476        -0.942634
 C         2.733899         1.398388         0.225604
 O         1.837518         0.663339         1.213903
 H        -0.150822        -1.612214         0.560902
 H        -0.791363        -0.165731         0.477007
 H        -0.294434        -0.801279        -1.042238
 H         2.888426        -1.535872         0.441382
 H         2.341920        -1.557492        -1.220252
 H         5.058458         0.959040        -1.770418
 H         5.384734         0.063973        -0.202213
 H         4.778529        -0.782099        -1.690991
 H         0.929492         1.879506        -1.397982
 H         3.393811         2.195343         0.573145
