19
Iteration:  3573
 C        -0.061960        -0.730513        -0.007182
 C         1.294905         0.009245        -0.143555
 C         2.591072        -0.943990        -0.403272
 C         3.421557         0.271811        -0.738142
 C         4.860232         0.080379        -1.224207
 O         2.653927         0.902860        -1.833451
 C         1.658280         1.312145        -0.848409
 C         2.652187         1.382236         0.297362
 O         1.823801         0.681733         1.142937
 H         0.150820        -1.486681         0.718085
 H        -0.912261        -0.020795         0.155443
 H        -0.395379        -1.127313        -0.925248
 H         2.897989        -1.458515         0.571074
 H         2.601902        -1.709835        -1.155186
 H         5.399421         1.005921        -1.172508
 H         5.217308        -0.629355        -0.595762
 H         4.782344        -0.112810        -2.287881
 H         0.981557         2.140648        -1.161954
 H         2.980640         2.308628         0.807474
