19
Iteration:  3126charge 0 multiplicity 1
 C         0.011552        -0.707887         0.263341
 C         1.287411        -0.064394        -0.111649
 C         2.513952        -0.867803        -0.495338
 C         3.414026         0.321372        -0.726001
 C         4.917018         0.084978        -0.995864
 O         2.643976         0.881636        -1.975476
 C         1.712443         1.292351        -0.993579
 C         2.638617         1.388513         0.173952
 O         1.762124         0.653477         1.070362
 H         0.115902        -1.160172         1.228303
 H        -0.811873         0.095666         0.445036
 H        -0.415339        -1.413532        -0.480115
 H         2.750610        -1.412826         0.403789
 H         2.331805        -1.466485        -1.436087
 H         5.432797         1.048325        -0.874791
 H         5.296572        -0.676061        -0.387856
 H         4.975578        -0.340869        -1.988946
 H         0.940323         2.099920        -1.265255
 H         3.286586         2.137070         0.543977
