19
Iteration:  4057
 C         0.000704        -0.666098         0.078332
 C         1.358578        -0.092661         0.016202
 C         2.550761        -0.903286        -0.435242
 C         3.393830         0.313625        -0.832284
 C         4.868691         0.110664        -1.025261
 O         2.648802         0.936074        -1.950159
 C         1.553933         1.283996        -0.910701
 C         2.660760         1.347393         0.202322
 O         1.849485         0.658979         1.144542
 H        -0.445053        -1.522365         0.762984
 H        -0.817104         0.052799         0.054946
 H        -0.178277        -1.239172        -0.908191
 H         2.871508        -1.515122         0.478613
 H         2.384855        -1.485919        -1.428579
 H         5.329531         0.807473        -1.783616
 H         5.516838         0.282634        -0.018987
 H         5.033831        -0.959062        -1.346157
 H         0.691632         1.955210        -1.324920
 H         3.335990         2.220567         0.378725
