19
Iteration:  1373
 C        -0.064418        -0.549393         0.017508
 C         1.317006        -0.041455        -0.020601
 C         2.615379        -0.925276        -0.322412
 C         3.409270         0.307538        -0.789468
 C         4.902469         0.218557        -1.112661
 O         2.650829         0.781462        -1.903062
 C         1.537394         1.181126        -0.940804
 C         2.676528         1.372129         0.150590
 O         1.846811         0.621632         1.157620
 H        -0.355390        -1.290414         0.732249
 H        -0.822278         0.266208         0.130286
 H        -0.357721        -0.906980        -1.026689
 H         3.111645        -1.349087         0.552183
 H         2.487559        -1.781621        -1.107378
 H         5.110509         1.035633        -1.775172
 H         5.472162         0.242089        -0.140464
 H         5.027722        -0.714749        -1.602520
 H         0.737088         1.868839        -1.092103
 H         3.246800         2.253284         0.564508
