19
Iteration:  4824
 C        -0.053052        -0.697695         0.190333
 C         1.320562        -0.026819        -0.076200
 C         2.589537        -0.875664        -0.532270
 C         3.420873         0.320336        -0.859774
 C         4.829578         0.110052        -0.949758
 O         2.601553         0.909873        -1.900631
 C         1.676901         1.247679        -0.973286
 C         2.705870         1.313725         0.256171
 O         1.816271         0.680794         1.072474
 H        -0.124850        -1.250938         1.136099
 H        -0.937280        -0.007455         0.213489
 H        -0.395314        -1.310987        -0.706648
 H         2.890447        -1.578647         0.226482
 H         2.365081        -1.353921        -1.512384
 H         5.318635         1.022163        -0.647868
 H         5.398461        -0.696821        -0.486191
 H         5.264374        -0.006136        -1.987950
 H         0.828365         1.819136        -1.320263
 H         3.165556         2.054343         0.762462
