19
Iteration:   275
 C        -0.071798        -0.702564         0.248854
 C         1.303866        -0.122721        -0.045954
 C         2.547510        -0.972352        -0.600831
 C         3.377143         0.318909        -0.830028
 C         4.905937         0.208186        -0.874149
 O         2.639544         0.936218        -1.949158
 C         1.665757         1.224373        -1.026321
 C         2.617571         1.359702         0.140164
 O         1.868182         0.702721         1.108904
 H        -0.084018        -1.586390         0.933887
 H        -0.834676         0.008122         0.836858
 H        -0.560817        -1.058670        -0.638799
 H         3.170963        -1.596096         0.248328
 H         2.387908        -1.606932        -1.469855
 H         5.323873         1.067412        -0.333628
 H         5.422833        -0.722153        -0.294799
 H         5.212170         0.113783        -1.889547
 H         0.887443         1.915769        -1.428614
 H         3.140037         2.320066         0.423544
