19
Iteration:  2708
 C        -0.046428        -0.678519         0.107651
 C         1.301209        -0.013221        -0.022540
 C         2.525180        -0.959104        -0.409501
 C         3.376925         0.230810        -0.796571
 C         4.845643         0.171183        -1.102141
 O         2.713010         0.852586        -1.917741
 C         1.678592         1.239311        -0.964447
 C         2.697152         1.339526         0.182700
 O         1.825243         0.745975         1.136067
 H        -0.321088        -1.345100         0.942699
 H        -0.704088         0.135766         0.270368
 H        -0.400968        -1.177895        -0.766347
 H         2.593456        -1.420452         0.644817
 H         2.245566        -1.625951        -1.227437
 H         5.164670         1.120543        -1.647120
 H         5.468371         0.094026        -0.140664
 H         5.016245        -0.635688        -1.769219
 H         0.905040         1.891617        -1.322870
 H         3.229194         2.262931         0.670900
