19
Iteration:  2315
 C        -0.144861        -0.596543         0.276887
 C         1.214330        -0.171952        -0.099033
 C         2.437194        -0.946202        -0.585132
 C         3.357159         0.285710        -0.881021
 C         4.927017         0.233426        -0.843961
 O         2.653379         0.969686        -2.023125
 C         1.675420         1.312037        -0.981706
 C         2.703398         1.268677         0.180349
 O         2.005387         0.557908         1.090208
 H         0.009883        -1.264470         1.179686
 H        -0.697147         0.159265         0.839634
 H        -0.717570        -0.928984        -0.536207
 H         2.976625        -1.622164         0.156667
 H         2.311417        -1.586006        -1.511964
 H         5.218625         1.234642        -0.877451
 H         5.016540        -0.243358         0.160724
 H         5.492188        -0.259785        -1.606844
 H         0.969027         2.109867        -1.163487
 H         3.189763         2.169890         0.566301
