19
Iteration:  1045
 C        -0.034851        -0.683317         0.048341
 C         1.262371        -0.056583        -0.082956
 C         2.566396        -0.921700        -0.316036
 C         3.427031         0.216358        -0.709894
 C         4.868652         0.153106        -1.146101
 O         2.624319         0.952295        -1.939628
 C         1.695551         1.236378        -0.968299
 C         2.653852         1.398515         0.119965
 O         1.830217         0.654831         1.226421
 H        -0.335889        -1.229614         0.966583
 H        -0.822812         0.160651        -0.038864
 H        -0.298050        -1.161305        -0.860548
 H         2.934905        -1.350173         0.611059
 H         2.446773        -1.568824        -1.151664
 H         5.311790         1.119221        -1.182562
 H         5.515484        -0.513988        -0.429653
 H         4.969713        -0.419217        -2.066277
 H         0.752871         1.738625        -1.134100
 H         3.326818         2.236287         0.451711
