19
Iteration:   207
 C        -0.033129        -0.646436        -0.015946
 C         1.339471        -0.113606         0.026207
 C         2.492133        -0.921918        -0.397413
 C         3.408928         0.328266        -0.784053
 C         4.875743         0.233920        -1.162435
 O         2.646160         0.913674        -1.892846
 C         1.687712         1.184641        -0.912815
 C         2.651512         1.265097         0.218214
 O         1.786544         0.713328         1.184808
 H        -0.068470        -1.409440         0.808608
 H        -0.912504         0.085439         0.017006
 H         0.057989        -1.188568        -0.990636
 H         3.060105        -1.477487         0.483005
 H         2.448317        -1.647708        -1.184644
 H         5.144219         0.945849        -1.956627
 H         5.616226         0.427934        -0.298128
 H         4.961025        -0.846946        -1.436895
 H         0.919926         1.821820        -1.279335
 H         3.119523         2.137705         0.602677
