19
Iteration:  2773
 C        -0.090072        -0.596044         0.137035
 C         1.330224        -0.035796        -0.043924
 C         2.538592        -0.922179        -0.332269
 C         3.491380         0.226141        -0.740393
 C         4.866650         0.175122        -1.056033
 O         2.622349         0.887658        -2.027057
 C         1.661688         1.204044        -0.970998
 C         2.672401         1.309212         0.124329
 O         1.829617         0.673677         1.106887
 H        -0.203829        -1.055429         1.209339
 H        -0.792569         0.238630         0.008329
 H        -0.299357        -1.283417        -0.679567
 H         2.779163        -1.574076         0.618369
 H         2.461843        -1.713941        -1.078130
 H         5.156107         1.251743        -0.910963
 H         5.449598        -0.342763        -0.218288
 H         4.950964        -0.267324        -1.982108
 H         0.847197         1.891117        -1.053816
 H         3.113642         2.382562         0.479500
