19
Iteration:   235
 C        -0.163274        -0.751650         0.079685
 C         1.324181        -0.032799        -0.102775
 C         2.567025        -0.881929        -0.456427
 C         3.444470         0.281728        -0.758138
 C         4.909941         0.188409        -1.081385
 O         2.599153         0.861776        -1.877955
 C         1.687179         1.254395        -0.940069
 C         2.644606         1.405722         0.200605
 O         1.850793         0.661459         1.177336
 H         0.008320        -1.561444         0.764091
 H        -0.894365        -0.084309         0.357440
 H        -0.313164        -1.147793        -0.952806
 H         2.837484        -1.304392         0.422859
 H         2.669700        -1.693242        -1.244818
 H         5.337654         1.185593        -1.297287
 H         5.384773        -0.193825        -0.242676
 H         5.070116        -0.505869        -1.944946
 H         0.881190         1.883248        -1.421004
 H         3.189186         2.322030         0.567020
