19
Iteration:   777charge 0 multiplicity 1
 C        -0.078482        -0.576624         0.242683
 C         1.260405        -0.146473        -0.109817
 C         2.470511        -0.997854        -0.525282
 C         3.409036         0.351936        -0.837197
 C         4.905696         0.249857        -0.870917
 O         2.673750         0.913864        -2.025755
 C         1.637322         1.205872        -0.943847
 C         2.686428         1.339860         0.184723
 O         1.904276         0.575557         1.118681
 H        -0.197011        -1.568802         0.696236
 H        -0.506303         0.299315         0.766050
 H        -0.644671        -0.634614        -0.790229
 H         2.941488        -1.642868         0.173326
 H         2.209978        -1.529555        -1.529721
 H         5.334217         1.209878        -1.399226
 H         5.194048         0.196504         0.141174
 H         5.242014        -0.671141        -1.438076
 H         0.848103         1.932891        -1.199615
 H         3.184170         2.289670         0.495576
