19
Iteration:  2539
 C        -0.040319        -0.680188         0.034729
 C         1.350583        -0.029573        -0.038987
 C         2.566338        -0.871614        -0.410804
 C         3.356486         0.323352        -0.877533
 C         4.763408         0.051742        -1.073855
 O         2.638718         0.876167        -1.934200
 C         1.687439         1.293159        -0.915889
 C         2.725603         1.419451         0.244038
 O         1.832596         0.620666         1.178987
 H        -0.060910        -1.091362         1.067495
 H        -0.918201         0.045277        -0.133880
 H        -0.172884        -1.635264        -0.578151
 H         2.974502        -1.204566         0.523694
 H         2.345121        -1.654306        -1.303640
 H         5.226226         1.018564        -1.296817
 H         5.248088        -0.164043        -0.169968
 H         4.948817        -0.788470        -1.844053
 H         0.900852         2.125346        -1.242497
 H         3.394778         2.162050         0.611516
