19
Iteration:  3636
 C        -0.063150        -0.622203         0.132799
 C         1.310074        -0.067967        -0.074805
 C         2.491331        -0.955043        -0.540028
 C         3.398803         0.348755        -0.764727
 C         4.837071         0.236061        -0.961758
 O         2.615907         0.867363        -1.931465
 C         1.653651         1.290950        -0.978689
 C         2.709736         1.345268         0.216180
 O         1.924484         0.523924         1.107576
 H        -0.215846        -1.395046         0.844891
 H        -0.641862         0.237268         0.532849
 H        -0.521413        -0.929060        -0.830567
 H         2.767368        -1.715204         0.203094
 H         2.335829        -1.400191        -1.528158
 H         5.366315         1.245442        -1.274411
 H         5.352279         0.040226        -0.021317
 H         5.166764        -0.625986        -1.594366
 H         0.830100         2.052623        -1.213148
 H         3.208585         2.150469         0.803338
