19
Iteration:  4595charge 0 multiplicity 1
 C        -0.103938        -0.654965         0.070537
 C         1.306651        -0.112427        -0.042487
 C         2.470568        -0.936184        -0.385718
 C         3.411054         0.238084        -0.791650
 C         4.874524         0.218534        -1.060213
 O         2.658829         0.916006        -1.965136
 C         1.686885         1.252160        -0.936046
 C         2.680107         1.389261         0.161977
 O         1.889800         0.620464         1.155785
 H        -0.275668        -0.937294         1.071379
 H        -1.001974         0.032291        -0.051153
 H        -0.304819        -1.562025        -0.544168
 H         3.029760        -1.295464         0.472849
 H         2.357353        -1.774885        -1.092605
 H         5.202602         1.265147        -0.633854
 H         5.453940        -0.554722        -0.575762
 H         5.093814         0.217830        -2.142840
 H         0.789180         1.882847        -1.084074
 H         3.312193         2.243352         0.421480
