19
Iteration:  3802
 C        -0.153506        -0.605978         0.183599
 C         1.320340        -0.044942        -0.063000
 C         2.472319        -0.953994        -0.479438
 C         3.398353         0.269788        -0.888644
 C         4.948960         0.262632        -1.034335
 O         2.707619         0.936136        -1.918106
 C         1.650439         1.195060        -0.939933
 C         2.709040         1.318073         0.141435
 O         1.842540         0.571237         1.155279
 H        -0.138533        -1.486671         0.824449
 H        -0.885382         0.174958         0.448364
 H        -0.572336        -0.925149        -0.728067
 H         2.853193        -1.553272         0.367426
 H         2.408707        -1.661862        -1.293090
 H         5.229120         1.311032        -0.763491
 H         5.319250        -0.108448        -0.140505
 H         5.071004        -0.424197        -1.870536
 H         0.869081         1.925825        -1.205872
 H         3.238543         2.176503         0.616551
