19
Iteration:  3396
 C         0.011037        -0.647185        -0.079291
 C         1.346510        -0.097160         0.035074
 C         2.511920        -0.927605        -0.406593
 C         3.401171         0.286269        -0.766314
 C         4.906229         0.127735        -1.232865
 O         2.609863         0.834395        -1.870291
 C         1.645556         1.210806        -0.873856
 C         2.644856         1.408804         0.282573
 O         1.822125         0.738945         1.208189
 H        -0.205025        -1.523140         0.521850
 H        -0.759334         0.129552         0.174495
 H        -0.174382        -1.041773        -1.162619
 H         2.914293        -1.558643         0.351217
 H         2.252506        -1.464523        -1.359680
 H         5.422835         1.132114        -1.009127
 H         5.337180        -0.519937        -0.583091
 H         5.036475        -0.099810        -2.275651
 H         0.822620         1.969117        -1.173271
 H         3.175426         2.299705         0.707024
