19
Iteration:  4461
 C        -0.077838        -0.677404         0.208049
 C         1.293376        -0.101595        -0.075409
 C         2.535644        -0.944394        -0.485871
 C         3.357804         0.295805        -0.829678
 C         4.863572         0.166081        -0.949706
 O         2.659742         1.005406        -1.940962
 C         1.644897         1.211109        -0.999772
 C         2.694972         1.342908         0.140404
 O         1.882996         0.653177         1.105887
 H         0.058280        -1.653679         0.716626
 H        -0.714696        -0.005253         0.846646
 H        -0.503430        -0.947116        -0.770430
 H         2.873819        -1.343532         0.479404
 H         2.519727        -1.689550        -1.257054
 H         5.150706         0.765687        -1.815167
 H         5.243261         0.472820         0.082309
 H         5.084669        -0.870833        -1.255305
 H         0.872370         1.946425        -1.251575
 H         3.325144         2.118644         0.574028
