19
Iteration:  2801charge 0 multiplicity 1
 C        -0.049432        -0.701950         0.323994
 C         1.257548        -0.008359        -0.099493
 C         2.491279        -0.912964        -0.533658
 C         3.487455         0.278536        -0.806649
 C         4.892482         0.128291        -0.995150
 O         2.734202         0.786575        -1.925855
 C         1.671660         1.259553        -1.048638
 C         2.614456         1.416912         0.190222
 O         1.818544         0.739356         1.095494
 H         0.151031        -1.420167         1.103199
 H        -0.871215        -0.050661         0.763650
 H        -0.537058        -1.255179        -0.486482
 H         2.671303        -1.755246         0.057567
 H         2.318394        -1.328233        -1.562840
 H         5.281552         1.125898        -0.963361
 H         5.099794        -0.255788         0.005044
 H         5.084648        -0.500152        -1.978186
 H         0.948337         2.018934        -1.469464
 H         2.972389         2.323788         0.536086
