19
Iteration:   863charge 0 multiplicity 1
 C        -0.059805        -0.697918         0.031373
 C         1.338113        -0.089543        -0.074464
 C         2.565856        -0.896765        -0.327337
 C         3.404985         0.350470        -0.711426
 C         4.849525         0.131364        -1.182068
 O         2.674949         0.920673        -1.921982
 C         1.722472         1.216431        -0.958358
 C         2.605967         1.394452         0.235300
 O         1.809522         0.662483         1.198348
 H        -0.241958        -1.177328         0.951631
 H        -0.778835         0.137590        -0.000514
 H        -0.209562        -1.326224        -0.860282
 H         2.844767        -1.690859         0.306499
 H         2.138528        -1.409986        -1.254036
 H         5.708500         0.922845        -1.210725
 H         5.216367        -0.581067        -0.502187
 H         4.757383        -0.483162        -2.116972
 H         0.926696         1.861091        -1.351114
 H         3.106251         2.355941         0.558618
