19
Iteration:  2082charge 0 multiplicity 1
 C        -0.082078        -0.746741        -0.030738
 C         1.266471         0.018689        -0.026439
 C         2.527399        -0.817058        -0.429988
 C         3.418321         0.302360        -0.836164
 C         5.003020         0.034823        -1.175121
 O         2.575967         0.887279        -1.890292
 C         1.635661         1.317618        -0.828325
 C         2.672067         1.442252         0.306770
 O         1.858988         0.613717         1.184534
 H        -0.022585        -1.638329         0.532823
 H        -0.824029        -0.175681         0.475668
 H        -0.381029        -0.809055        -1.140610
 H         2.880912        -1.452692         0.460717
 H         2.235634        -1.646529        -1.271071
 H         5.432774         0.926036        -1.764271
 H         5.557111        -0.333090        -0.359191
 H         5.136345        -0.779218        -1.918368
 H         0.749167         1.888639        -1.201017
 H         3.325995         2.223524         0.816007
