19
Iteration:  3889charge 0 multiplicity 1
 C        -0.070350        -0.706376         0.104369
 C         1.281008        -0.005516        -0.085807
 C         2.599142        -0.895870        -0.461026
 C         3.362959         0.306192        -0.772298
 C         4.783296         0.117877        -1.106003
 O         2.714328         0.904965        -1.895572
 C         1.669908         1.290396        -0.937785
 C         2.678416         1.356182         0.269941
 O         1.817781         0.601430         1.096006
 H         0.042646        -1.481204         0.922164
 H        -0.841436         0.079527         0.479257
 H        -0.370565        -1.223678        -0.802901
 H         2.813088        -1.241975         0.541993
 H         2.544666        -1.494278        -1.318004
 H         5.305801         1.072271        -1.606326
 H         5.406486        -0.108807        -0.266391
 H         5.062026        -0.831625        -1.717757
 H         1.053740         2.122249        -1.194099
 H         3.158014         2.286667         0.707703
