19
Iteration:  2596charge 0 multiplicity 1
 C        -0.078446        -0.531923         0.126265
 C         1.308214        -0.105317        -0.007366
 C         2.529753        -0.997201        -0.379928
 C         3.426815         0.307408        -0.742132
 C         4.860320         0.222163        -1.111798
 O         2.653408         0.796792        -1.966444
 C         1.699387         1.293716        -1.002025
 C         2.661565         1.290282         0.229871
 O         1.819764         0.663124         1.129992
 H        -0.218374        -1.295314         0.849161
 H        -0.819460         0.301560         0.370394
 H        -0.164755        -0.925243        -0.877094
 H         2.727057        -1.672246         0.468999
 H         2.499340        -1.647772        -1.361947
 H         5.168812         1.220874        -1.336457
 H         5.498920        -0.225024        -0.288904
 H         5.046377        -0.236137        -2.100850
 H         0.889052         2.043252        -1.158848
 H         3.252937         2.159405         0.557233
