19
Iteration:  1108
 C        -0.078765        -0.679696         0.271581
 C         1.315169        -0.075637        -0.049089
 C         2.457275        -0.894338        -0.492846
 C         3.385186         0.267087        -0.795506
 C         4.865403         0.249333        -0.964985
 O         2.651585         0.856840        -1.982300
 C         1.707663         1.260698        -0.987541
 C         2.664020         1.326811         0.144655
 O         1.890069         0.664684         1.085709
 H        -0.067625        -1.541445         1.049199
 H        -0.766867         0.168482         0.444647
 H        -0.406732        -1.148073        -0.662072
 H         2.966674        -1.742265         0.161856
 H         2.305171        -1.360111        -1.452828
 H         5.383032         1.169238        -0.960634
 H         5.074402        -0.328213         0.084624
 H         5.244762        -0.379254        -1.788172
 H         0.931225         1.980855        -1.408855
 H         3.221016         2.222593         0.449089
