19
Iteration:  3485
 C        -0.140765        -0.615828         0.204431
 C         1.275166        -0.125536        -0.045898
 C         2.428434        -1.032468        -0.684526
 C         3.376101         0.308530        -0.861249
 C         4.856648         0.284587        -0.874829
 O         2.682726         0.918789        -1.921245
 C         1.651279         1.293847        -0.974442
 C         2.696709         1.355052         0.198869
 O         2.004383         0.551231         1.147812
 H        -0.035201        -1.385672         0.957376
 H        -0.732253         0.269778         0.624797
 H        -0.702336        -1.033912        -0.645666
 H         2.902518        -1.684330         0.071155
 H         2.218327        -1.490730        -1.666192
 H         5.386233         1.051135        -1.405666
 H         5.105324         0.244227         0.125568
 H         5.357259        -0.565868        -1.238705
 H         0.932241         2.024429        -1.472838
 H         3.198181         2.264342         0.565282
