19
Iteration:  2766charge 0 multiplicity 1
 C        -0.109113        -0.565397         0.074972
 C         1.306043        -0.026371        -0.052556
 C         2.623177        -0.957242        -0.247862
 C         3.395881         0.225947        -0.803869
 C         4.818675         0.188774        -1.058449
 O         2.597937         0.888032        -2.016337
 C         1.690206         1.154454        -0.936470
 C         2.676074         1.319712         0.151800
 O         1.870487         0.670505         1.133210
 H        -0.264094        -0.939040         1.029002
 H        -0.720724         0.285253        -0.149109
 H        -0.221877        -1.318054        -0.736291
 H         2.857001        -1.448277         0.713742
 H         2.554058        -1.662941        -1.085848
 H         5.190001         1.240773        -1.035708
 H         5.355649        -0.375026        -0.334357
 H         5.280649        -0.245801        -2.033570
 H         0.997608         2.028066        -1.147656
 H         3.006441         2.252298         0.467452
