19
Iteration:  3992
 C        -0.169777        -0.660026         0.301698
 C         1.292760        -0.123877        -0.093608
 C         2.545786        -0.963159        -0.582960
 C         3.381738         0.263168        -0.865632
 C         4.847546         0.242904        -0.940291
 O         2.756192         0.923743        -1.983559
 C         1.693413         1.205469        -1.022274
 C         2.671994         1.362752         0.178786
 O         1.859836         0.683212         1.175643
 H         0.054747        -1.484273         0.997748
 H        -0.811828         0.085920         0.724669
 H        -0.506758        -0.893425        -0.732381
 H         2.828048        -1.788436         0.173087
 H         2.264537        -1.495388        -1.600539
 H         5.288041         1.247959        -0.823448
 H         5.166760        -0.384468        -0.019764
 H         5.221097        -0.192052        -1.860955
 H         0.733828         1.819828        -1.227837
 H         3.091519         2.283703         0.672655
