19
Iteration:  2863
 C        -0.038240        -0.596050         0.135533
 C         1.343942        -0.048546        -0.018072
 C         2.544660        -0.899742        -0.440855
 C         3.389627         0.355187        -0.776233
 C         4.889130         0.158869        -0.914303
 O         2.555299         0.788785        -2.008959
 C         1.609183         1.205167        -1.030778
 C         2.682827         1.337675         0.121252
 O         1.920993         0.679910         1.163004
 H        -0.026238        -1.574497         0.607252
 H        -0.695944         0.090806         0.657624
 H        -0.398533        -0.733088        -0.923126
 H         2.766437        -1.603275         0.425289
 H         2.199710        -1.383220        -1.379411
 H         5.472084         0.977116        -1.455565
 H         5.376942         0.008805         0.021460
 H         5.102406        -0.794787        -1.362385
 H         0.816042         1.929714        -1.404964
 H         3.056369         2.268055         0.519433
