19
Iteration:    33
 C        -0.087436        -0.635252        -0.023197
 C         1.268637        -0.038538        -0.020759
 C         2.574328        -0.928019        -0.436410
 C         3.449476         0.242871        -0.772220
 C         4.911154         0.239082        -1.166282
 O         2.627781         0.955389        -1.884569
 C         1.708432         1.209124        -0.871419
 C         2.662004         1.264148         0.301771
 O         1.771062         0.603349         1.143296
 H        -0.230958        -1.438425         0.720713
 H        -0.834304         0.134609         0.113877
 H        -0.095761        -1.098515        -1.032517
 H         2.899745        -1.393240         0.512959
 H         2.477648        -1.586876        -1.319792
 H         5.503746        -0.656930        -0.933906
 H         4.921646         0.475686        -2.206392
 H         5.411132         1.109613        -0.692188
 H         0.955002         1.967596        -1.070858
 H         3.110644         2.139200         0.727338
