19
Iteration:  1420
 C        -0.015307        -0.619629         0.191974
 C         1.272710        -0.009286        -0.036685
 C         2.525703        -0.845491        -0.480658
 C         3.426262         0.282593        -0.788470
 C         4.939418         0.217067        -1.002473
 O         2.597327         0.756636        -1.907495
 C         1.684836         1.198286        -0.973644
 C         2.692854         1.315813         0.147444
 O         1.793521         0.681298         1.075437
 H        -0.163045        -1.350004         1.023650
 H        -0.935976        -0.121487         0.188124
 H        -0.334680        -1.207354        -0.701176
 H         2.747802        -1.311798         0.492126
 H         2.578231        -1.657315        -1.339703
 H         5.310954         1.306416        -1.038386
 H         5.358483        -0.299452        -0.248116
 H         5.032461        -0.268431        -1.995884
 H         1.003126         2.058704        -1.197007
 H         3.172867         2.205369         0.528465
