19
Iteration:  1261
 C        -0.136859        -0.649107         0.169957
 C         1.321326        -0.123287        -0.017033
 C         2.553982        -0.899753        -0.459038
 C         3.351293         0.296425        -0.806561
 C         4.809636         0.179349        -0.949517
 O         2.718156         0.874512        -1.963068
 C         1.674587         1.264459        -1.041814
 C         2.652393         1.359219         0.082993
 O         1.897212         0.660160         1.184612
 H        -0.052284        -1.106479         1.199840
 H        -0.894475         0.205269         0.294623
 H        -0.432402        -1.426807        -0.514698
 H         3.163409        -1.489693         0.359249
 H         2.376968        -1.523803        -1.391489
 H         5.267543         1.115649        -0.765504
 H         5.401269        -0.593153        -0.342889
 H         5.009221        -0.037281        -2.005940
 H         0.747205         1.763123        -1.410010
 H         3.196097         2.247422         0.373476
