19
Iteration:   557
 C        -0.017697        -0.657717         0.034701
 C         1.339018        -0.083047        -0.014274
 C         2.601761        -0.875704        -0.494069
 C         3.373349         0.311825        -0.844897
 C         4.821460         0.113166        -1.099318
 O         2.670894         0.924496        -1.903038
 C         1.692668         1.251794        -0.917338
 C         2.603631         1.381180         0.276701
 O         1.785401         0.607193         1.193441
 H        -0.238427        -1.429265         0.780891
 H        -0.921665         0.020741         0.281835
 H        -0.096136        -1.128925        -0.905029
 H         3.164404        -1.169825         0.494014
 H         2.481487        -1.623799        -1.231158
 H         5.227998         1.096823        -1.326117
 H         5.404924        -0.261470        -0.218216
 H         4.907624        -0.613674        -1.898284
 H         0.995925         1.866448        -1.471989
 H         3.143222         2.275454         0.644318
