19
Iteration:  1746
 C        -0.035163        -0.667310         0.036039
 C         1.344170        -0.087678        -0.095485
 C         2.586136        -0.944862        -0.424376
 C         3.421308         0.265145        -0.741946
 C         4.860487         0.142645        -1.085352
 O         2.546732         0.897303        -1.894395
 C         1.679222         1.211770        -0.889832
 C         2.682958         1.419776         0.199593
 O         1.826265         0.721223         1.137978
 H        -0.042944        -1.522898         0.750889
 H        -0.747300         0.089185         0.359673
 H        -0.476785        -1.029440        -0.924120
 H         2.852820        -1.359997         0.518261
 H         2.545767        -1.910512        -1.184280
 H         5.330157         0.888094        -1.764584
 H         5.450367         0.246213        -0.223637
 H         5.036527        -0.891894        -1.514277
 H         0.896863         1.950603        -1.214948
 H         3.057474         2.410305         0.409650
