19
Iteration:  1415
 C        -0.040010        -0.613593         0.157807
 C         1.269938        -0.038059        -0.010795
 C         2.533806        -0.872349        -0.485839
 C         3.380310         0.303174        -0.798715
 C         4.907835         0.235705        -1.046281
 O         2.668652         0.729684        -1.912102
 C         1.641414         1.212354        -0.904037
 C         2.725631         1.284266         0.146413
 O         1.791039         0.717667         1.104622
 H        -0.158421        -1.327838         0.954640
 H        -1.021208        -0.007822         0.085460
 H        -0.240433        -1.192767        -0.769754
 H         2.769946        -1.341936         0.479161
 H         2.570646        -1.577347        -1.306380
 H         5.206051         1.243492        -1.139835
 H         5.604602        -0.179270        -0.146166
 H         5.048893        -0.246773        -2.008026
 H         0.964777         1.938443        -1.322217
 H         3.214205         2.228906         0.482386
