19
Iteration:  4339
 C        -0.048259        -0.750197         0.236177
 C         1.272995        -0.081359        -0.100686
 C         2.583068        -0.945946        -0.461850
 C         3.372077         0.348471        -0.711941
 C         4.797702         0.123274        -0.957637
 O         2.711492         0.911594        -1.939491
 C         1.613725         1.317013        -1.040206
 C         2.605273         1.418123         0.155520
 O         1.892115         0.689202         1.048593
 H         0.220612        -1.718574         0.874574
 H        -0.670756        -0.112053         0.789535
 H        -0.432546        -1.186448        -0.683774
 H         2.983836        -1.442929         0.395054
 H         2.682358        -1.559968        -1.336904
 H         5.321632         0.988614        -0.713802
 H         5.092136        -0.813176        -0.395922
 H         4.780439        -0.074315        -2.039740
 H         0.934622         1.951102        -1.524442
 H         3.411749         2.047671         0.544024
