19
Iteration:  2553
 C        -0.038622        -0.662913         0.032278
 C         1.307878        -0.052050        -0.042751
 C         2.551231        -0.863777        -0.366480
 C         3.403754         0.299349        -0.759198
 C         4.908000         0.120516        -1.181431
 O         2.577090         0.861961        -1.901811
 C         1.706260         1.297756        -0.889459
 C         2.658105         1.326785         0.229664
 O         1.834925         0.666437         1.152534
 H        -0.413253        -1.005605         0.937781
 H        -0.706613         0.136788        -0.353959
 H        -0.162758        -1.354866        -0.730472
 H         2.907271        -1.387438         0.511111
 H         2.469448        -1.743111        -1.082380
 H         5.387556         0.937804        -1.675233
 H         5.410501        -0.438500        -0.340245
 H         4.859290        -0.697008        -1.944520
 H         1.004870         2.097833        -1.196742
 H         3.033860         2.250840         0.688196
