19
Iteration:   114charge 0 multiplicity 1
 C        -0.095944        -0.719866         0.208258
 C         1.232993        -0.021562        -0.098838
 C         2.542867        -0.836240        -0.573096
 C         3.383639         0.367416        -0.777995
 C         4.919442         0.181842        -0.874530
 O         2.669044         0.885700        -1.964151
 C         1.645565         1.268133        -0.970044
 C         2.645510         1.299742         0.202818
 O         1.877293         0.560350         1.069479
 H         0.219750        -1.503326         0.883158
 H        -0.716776        -0.040297         0.816990
 H        -0.631190        -1.072719        -0.633964
 H         2.963788        -1.559206         0.096864
 H         2.443633        -1.352540        -1.522746
 H         5.140277        -0.243300        -1.829447
 H         5.274072         1.216021        -1.047541
 H         5.458590        -0.272204        -0.072864
 H         0.804182         1.945723        -1.263136
 H         3.353437         2.106313         0.574611
