19
Iteration:   388
 C        -0.044741        -0.723010        -0.012254
 C         1.296143        -0.042020        -0.052519
 C         2.640796        -0.923783        -0.385155
 C         3.398884         0.337272        -0.693880
 C         4.807309         0.187903        -1.106853
 O         2.651580         0.877622        -1.914766
 C         1.656661         1.264267        -0.860006
 C         2.656041         1.305807         0.226479
 O         1.823327         0.687988         1.111098
 H        -0.111289        -1.506026         0.744876
 H        -0.742500         0.000013         0.189770
 H        -0.153275        -1.130687        -1.103041
 H         2.868882        -1.400673         0.479569
 H         2.522808        -1.510651        -1.383778
 H         5.171249         0.984235        -1.811747
 H         5.403209         0.008751        -0.291528
 H         4.846050        -0.724751        -1.754089
 H         0.782074         1.982352        -0.977806
 H         3.223627         2.209300         0.474222
