19
Iteration:  3451
 C        -0.065203        -0.652589         0.136535
 C         1.273176        -0.008556        -0.058062
 C         2.586430        -0.933850        -0.561114
 C         3.377342         0.283082        -0.802446
 C         4.969857         0.103172        -1.083187
 O         2.633587         0.957621        -1.910095
 C         1.653709         1.310994        -0.908847
 C         2.672679         1.365789         0.233194
 O         1.782828         0.565719         1.162688
 H         0.139461        -1.426002         0.846928
 H        -0.866056        -0.031356         0.585374
 H        -0.368139        -1.109499        -0.842238
 H         2.861801        -1.505597         0.299544
 H         2.416900        -1.626820        -1.416611
 H         5.482600         0.935684        -1.571405
 H         5.413739         0.067116        -0.185531
 H         5.068637        -0.838210        -1.543172
 H         0.929279         2.096125        -1.333856
 H         2.983094         2.287280         0.737813
