19
Iteration:  4203
 C        -0.014675        -0.789493         0.204087
 C         1.233097        -0.103055        -0.059543
 C         2.441779        -0.925915        -0.461199
 C         3.411667         0.330102        -0.813542
 C         4.860130         0.149648        -0.989089
 O         2.744935         0.873497        -1.929389
 C         1.682491         1.323565        -0.955330
 C         2.624061         1.454545         0.191327
 O         1.888436         0.642694         1.053184
 H         0.036621        -1.281089         1.109545
 H        -0.928729        -0.097683         0.349853
 H        -0.313059        -1.345736        -0.704523
 H         2.753767        -1.502895         0.483409
 H         2.203390        -1.599324        -1.314439
 H         5.255998         1.155524        -1.395527
 H         5.417354        -0.028935        -0.097577
 H         5.052526        -0.491161        -1.867422
 H         0.883701         2.018519        -1.403835
 H         2.989956         2.476294         0.547660
