19
Iteration:   932charge 0 multiplicity 1
 C        -0.102840        -0.596594         0.164241
 C         1.295627        -0.028494        -0.053691
 C         2.481022        -0.933168        -0.498783
 C         3.400385         0.257018        -0.862074
 C         4.915914         0.239002        -0.972159
 O         2.662404         0.853146        -1.853461
 C         1.646964         1.209798        -1.006748
 C         2.653777         1.322899         0.160290
 O         1.909658         0.603884         1.098580
 H         0.034698        -1.353591         0.961525
 H        -0.708395         0.085947         0.674715
 H        -0.516800        -0.889883        -0.843268
 H         2.960921        -1.595303         0.212784
 H         2.436750        -1.405749        -1.475291
 H         5.150049         1.307993        -1.078748
 H         5.239474        -0.038000         0.086829
 H         5.274691        -0.449089        -1.740414
 H         0.851843         1.928870        -1.240635
 H         2.978275         2.281253         0.435854
