19
Iteration:  2474charge 0 multiplicity 1
 C        -0.023972        -0.543555         0.289854
 C         1.306752        -0.122962        -0.109869
 C         2.456761        -0.953362        -0.556410
 C         3.351479         0.280257        -0.810158
 C         4.837325         0.204625        -0.849293
 O         2.669315         0.930757        -1.987174
 C         1.688946         1.272374        -1.008940
 C         2.709415         1.308050         0.104001
 O         1.844171         0.544234         1.091111
 H         0.108778        -1.409659         0.829256
 H        -0.220203         0.133939         1.124964
 H        -0.747043        -0.676911        -0.500105
 H         2.788174        -1.470254         0.322616
 H         2.339660        -1.696249        -1.450242
 H         5.244935         1.219913        -1.013644
 H         5.278534        -0.072621         0.076331
 H         5.234329        -0.306323        -1.781454
 H         0.871428         2.030962        -1.336548
 H         3.305430         2.132838         0.436656
