19
Iteration:  1386charge 0 multiplicity 1
 C        -0.091782        -0.560708         0.018026
 C         1.346020        -0.153508         0.011727
 C         2.501036        -0.984571        -0.306610
 C         3.410394         0.246813        -0.745747
 C         4.886339         0.224117        -1.115940
 O         2.596523         0.862335        -1.940144
 C         1.724165         1.188415        -0.948055
 C         2.593895         1.385472         0.199297
 O         1.905251         0.694790         1.143130
 H        -0.330465        -1.337076         0.780142
 H        -0.691267         0.322796         0.076629
 H        -0.130051        -1.102658        -1.020751
 H         2.718698        -1.417697         0.659566
 H         2.482094        -1.821251        -1.190919
 H         5.083154         1.230011        -1.645674
 H         5.579503         0.276050        -0.348225
 H         5.249809        -0.539661        -1.819555
 H         0.929756         1.761910        -1.463743
 H         2.982025         2.393903         0.470445
