19
Iteration:  2991
 C         0.006856        -0.704050         0.305348
 C         1.269169         0.020768        -0.151766
 C         2.504607        -0.926605        -0.490903
 C         3.328160         0.306862        -0.781509
 C         4.848394         0.090460        -0.852742
 O         2.621529         0.900119        -2.061306
 C         1.669683         1.328981        -1.071891
 C         2.729749         1.336352         0.165314
 O         1.837149         0.647806         1.089402
 H         0.451738        -1.375702         1.107474
 H        -0.536834         0.019245         0.831214
 H        -0.563315        -1.206819        -0.486576
 H         2.861473        -1.487538         0.371048
 H         2.372414        -1.533277        -1.306413
 H         5.539997         0.975203        -0.931500
 H         5.354035        -0.272935         0.099839
 H         5.199151        -0.545533        -1.627994
 H         0.807266         1.771249        -1.514882
 H         3.231638         2.296551         0.622740
