19
Iteration:  4720
 C        -0.194461        -0.552467         0.042515
 C         1.267372        -0.187289        -0.022275
 C         2.507835        -0.963718        -0.411134
 C         3.398403         0.251347        -0.747803
 C         4.854385         0.311339        -1.059771
 O         2.664932         0.856675        -2.017434
 C         1.697042         1.261730        -0.917656
 C         2.707716         1.294817         0.211966
 O         1.952701         0.625223         1.210825
 H        -0.318304        -1.681829         0.276488
 H        -0.786344         0.168196         0.620161
 H        -0.613153        -0.704750        -0.940790
 H         2.996877        -1.663864         0.327280
 H         2.476813        -1.443271        -1.392095
 H         5.179008         1.069177        -1.726839
 H         5.363333         0.445144        -0.070800
 H         5.308660        -0.582844        -1.427224
 H         0.978341         2.108958        -1.130826
 H         3.019181         2.414634         0.315749
