19
Iteration:  1974charge 0 multiplicity 1
 C        -0.061287        -0.569771         0.283776
 C         1.343220        -0.095199        -0.088938
 C         2.501247        -1.002940        -0.648761
 C         3.324097         0.279734        -0.896161
 C         4.808092         0.200844        -0.827831
 O         2.688535         0.964804        -2.014922
 C         1.644987         1.281267        -0.954024
 C         2.604697         1.328959         0.174333
 O         1.987374         0.538867         1.140811
 H         0.176299        -1.318478         1.057733
 H        -0.586857         0.357675         0.596540
 H        -0.712161        -1.199376        -0.412547
 H         2.712031        -1.562671         0.140383
 H         2.130234        -1.545634        -1.608360
 H         5.203476         1.295983        -1.030527
 H         5.176645        -0.136604         0.136762
 H         5.407267        -0.447177        -1.614208
 H         0.943966         2.050831        -1.366388
 H         3.101206         2.204361         0.660061
