19
Iteration:  2719
 C        -0.112206        -0.578483         0.020909
 C         1.329093        -0.049414        -0.013199
 C         2.464031        -0.984671        -0.369534
 C         3.426697         0.278006        -0.757356
 C         4.845859         0.201685        -1.126693
 O         2.657499         0.793024        -1.899689
 C         1.702698         1.215504        -0.934347
 C         2.687915         1.389098         0.144417
 O         1.827875         0.716327         1.203919
 H         0.083723        -1.195963         0.914034
 H        -0.957093         0.043294         0.010134
 H        -0.065554        -1.244853        -0.808715
 H         3.108556        -1.667846         0.360412
 H         2.285100        -1.651027        -1.219373
 H         5.154223         1.188102        -1.633133
 H         5.551368        -0.045866        -0.257403
 H         5.031170        -0.593319        -1.801902
 H         0.896334         1.841893        -1.266041
 H         3.355314         2.352459         0.362371
