19
Iteration:  3147
 C        -0.053224        -0.678526         0.351670
 C         1.199453        -0.068156        -0.096242
 C         2.523840        -0.930688        -0.523606
 C         3.368553         0.330475        -0.891748
 C         4.912936         0.093727        -0.884745
 O         2.736570         1.000797        -1.997598
 C         1.650330         1.238708        -0.997229
 C         2.670511         1.346099         0.090254
 O         1.855472         0.644841         1.078462
 H         0.174898        -1.277862         1.176488
 H        -0.896950        -0.007580         0.747552
 H        -0.554957        -1.332814        -0.383618
 H         2.857681        -1.433292         0.351324
 H         2.382096        -1.606044        -1.377006
 H         5.498075         1.023598        -0.469610
 H         5.008057        -0.699561        -0.202476
 H         5.331863        -0.319437        -1.796819
 H         0.823713         1.922411        -1.405888
 H         2.979744         2.263417         0.563199
