19
Iteration:  4307
 C        -0.062852        -0.679532         0.180882
 C         1.277089        -0.054176        -0.032777
 C         2.553363        -0.937493        -0.543202
 C         3.443509         0.210163        -0.853738
 C         4.998486         0.183799        -0.974494
 O         2.590903         0.889942        -2.008087
 C         1.646626         1.212821        -0.962106
 C         2.606404         1.411161         0.296981
 O         1.787466         0.729803         1.123710
 H         0.170713        -1.716546         0.695286
 H        -0.682037        -0.046894         0.792218
 H        -0.500024        -0.884255        -0.807420
 H         2.886111        -1.504435         0.314433
 H         2.304678        -1.596505        -1.342645
 H         5.360175         1.151203        -1.140293
 H         5.614207        -0.178683        -0.083291
 H         5.441288        -0.423731        -1.777579
 H         0.850929         1.810241        -1.293065
 H         3.283130         2.153439         0.540750
