19
Iteration:  1646charge 0 multiplicity 1
 C        -0.071234        -0.699583         0.326687
 C         1.290154        -0.102083        -0.093598
 C         2.544313        -0.890500        -0.506741
 C         3.407923         0.324390        -0.801871
 C         4.885267         0.139370        -0.859019
 O         2.641342         0.943449        -1.912909
 C         1.596908         1.239000        -1.032389
 C         2.665664         1.362960         0.021102
 O         1.904810         0.664631         1.016809
 H         0.034628        -1.495936         1.054303
 H        -0.662626         0.132005         0.660691
 H        -0.700768        -1.246529        -0.473098
 H         2.896647        -1.568697         0.277036
 H         2.377433        -1.537748        -1.494718
 H         5.496564         1.040318        -0.498965
 H         5.060424        -0.630356        -0.078694
 H         5.315886        -0.269668        -1.763950
 H         0.826748         1.919466        -1.288654
 H         3.132457         2.286663         0.374214
