19
Iteration:  1298charge 0 multiplicity 1
 C        -0.038654        -0.736709         0.304326
 C         1.276968        -0.095355        -0.022758
 C         2.528315        -0.889981        -0.538421
 C         3.436748         0.278181        -0.808886
 C         4.943313         0.123882        -0.863810
 O         2.639428         0.837951        -2.018966
 C         1.669234         1.402556        -1.027415
 C         2.606629         1.410435         0.126545
 O         1.825860         0.678672         1.060973
 H         0.114737        -1.507662         1.051914
 H        -0.721431        -0.034954         0.819899
 H        -0.703572        -1.188943        -0.514843
 H         2.885524        -1.628106         0.158203
 H         2.381742        -1.501184        -1.540919
 H         5.327819         1.164384        -0.945620
 H         5.196226        -0.417674         0.031748
 H         5.086816        -0.462797        -1.753142
 H         0.941557         2.049120        -1.455353
 H         3.317543         2.185662         0.523508
