19
Iteration:   415charge 0 multiplicity 1
 C        -0.077149        -0.766080         0.064259
 C         1.276479        -0.055314        -0.063372
 C         2.463153        -0.889301        -0.492946
 C         3.444679         0.270072        -0.898067
 C         4.930598         0.221453        -1.051163
 O         2.657659         0.893275        -1.927634
 C         1.717421         1.226559        -0.897563
 C         2.639186         1.421089         0.276930
 O         1.846998         0.628444         1.138773
 H        -0.029625        -1.558054         0.829627
 H        -0.668795         0.003640         0.754112
 H        -0.415795        -1.047692        -0.880681
 H         2.691757        -1.471521         0.544090
 H         2.023225        -1.478213        -1.236279
 H         5.386718         1.043364        -1.594333
 H         5.297233         0.320292         0.069883
 H         5.317758        -0.755090        -1.361381
 H         0.873481         1.875713        -1.162387
 H         3.061968         2.413448         0.486658
