19
Iteration:  4483charge 0 multiplicity 1
 C         0.066099        -0.734966         0.191629
 C         1.283790         0.026516        -0.113141
 C         2.457055        -0.865185        -0.522770
 C         3.383335         0.358742        -0.802217
 C         4.931660         0.112562        -0.909482
 O         2.607475         0.817126        -2.014664
 C         1.619180         1.335084        -0.957582
 C         2.658811         1.436015         0.157867
 O         1.869978         0.554694         1.161119
 H         0.303350        -1.715530         0.596874
 H        -0.456858        -0.103918         0.972353
 H        -0.517908        -0.926787        -0.733341
 H         2.631075        -1.561969         0.303249
 H         2.200544        -1.341043        -1.450350
 H         5.387502         0.723936        -1.728256
 H         5.390953         0.293036         0.136193
 H         5.115476        -0.948821        -1.276176
 H         0.873479         2.111077        -1.283552
 H         2.975836         2.331991         0.673261
