19
Iteration:  1176charge 0 multiplicity 1
 C        -0.054158        -0.642279         0.122638
 C         1.293370        -0.010025        -0.067130
 C         2.556976        -0.913866        -0.477635
 C         3.395861         0.303353        -0.760725
 C         4.915064         0.134524        -1.051018
 O         2.668908         0.882799        -1.936890
 C         1.621440         1.172089        -0.960944
 C         2.596845         1.315641         0.140829
 O         1.910127         0.719434         1.205731
 H        -0.050722        -1.614072         0.603677
 H        -0.825672         0.025627         0.663972
 H        -0.461379        -0.958457        -0.841776
 H         2.657541        -1.511778         0.407780
 H         2.470954        -1.560655        -1.395257
 H         5.289840         0.937951        -1.656167
 H         5.297469         0.229163         0.040628
 H         5.073417        -0.763352        -1.587516
 H         0.819982         1.774104        -1.227199
 H         2.907690         2.332046         0.430672
