19
Iteration:  4729
 C        -0.194209        -0.586543         0.021683
 C         1.261653        -0.096409        -0.041188
 C         2.526531        -1.015676        -0.382577
 C         3.411944         0.314178        -0.810535
 C         4.907423         0.302911        -1.048747
 O         2.657263         0.864104        -1.951303
 C         1.625881         1.329582        -0.965594
 C         2.696163         1.263475         0.182789
 O         1.935868         0.577698         1.230856
 H        -0.146692        -1.447648         0.779169
 H        -0.736130         0.150178         0.490035
 H        -0.608585        -0.712826        -0.948685
 H         3.008392        -1.572871         0.447933
 H         2.456143        -1.631316        -1.282791
 H         5.241109         1.136431        -1.602098
 H         5.556013         0.189745        -0.152904
 H         5.118259        -0.659444        -1.618311
 H         0.909096         1.930014        -1.375923
 H         3.230351         2.242666         0.415373
