19
Iteration:   423charge 0 multiplicity 1
 C        -0.036955        -0.720023         0.145424
 C         1.279792        -0.059850        -0.107899
 C         2.485708        -0.913627        -0.508431
 C         3.397476         0.275718        -0.876820
 C         4.897781         0.229347        -0.988855
 O         2.676868         0.888319        -1.937426
 C         1.684241         1.239375        -0.886093
 C         2.635387         1.369532         0.229935
 O         1.856480         0.659422         1.118403
 H         0.068925        -1.683386         0.686668
 H        -0.768534         0.055439         0.569726
 H        -0.599215        -0.947597        -0.750512
 H         2.817904        -1.718343         0.252228
 H         2.330457        -1.557903        -1.399875
 H         5.341525         1.067649        -1.519860
 H         5.290902         0.360885         0.025931
 H         5.287436        -0.749619        -1.345119
 H         0.827179         1.932173        -1.013172
 H         3.092888         2.268934         0.597679
