19
Iteration:   303
 C        -0.029853        -0.664691         0.262854
 C         1.318588        -0.041081        -0.076549
 C         2.412896        -0.901382        -0.535309
 C         3.401011         0.358731        -0.785850
 C         4.926472         0.252787        -0.877836
 O         2.647835         0.869612        -1.993779
 C         1.694904         1.187194        -0.963977
 C         2.653688         1.352004         0.103268
 O         1.839996         0.557484         1.078810
 H         0.066872        -1.438650         1.027135
 H        -0.735951         0.011698         0.677952
 H        -0.563866        -1.152506        -0.575864
 H         2.886520        -1.474371         0.222074
 H         2.437996        -1.538634        -1.440478
 H         5.258161         1.062605        -0.221300
 H         5.414877        -0.556229        -0.443475
 H         5.258294         0.313100        -1.955246
 H         0.993539         1.905847        -1.366319
 H         2.987096         2.343653         0.280131
