19
Iteration:  2158
 C        -0.089681        -0.531323         0.327111
 C         1.279354        -0.124082        -0.167102
 C         2.461341        -0.964416        -0.659950
 C         3.405373         0.330570        -0.839538
 C         4.926969         0.263228        -0.861857
 O         2.622548         0.916393        -1.961738
 C         1.646430         1.295623        -0.918619
 C         2.776142         1.299716         0.171199
 O         1.857200         0.473476         1.068707
 H         0.080433        -1.131975         1.207925
 H        -0.667035         0.371873         0.551598
 H        -0.762122        -1.150692        -0.365650
 H         2.787741        -1.634757         0.167264
 H         2.397154        -1.636470        -1.630047
 H         5.254933         1.338850        -0.935670
 H         5.230502        -0.344576        -0.063401
 H         5.394835        -0.156793        -1.730212
 H         0.760676         1.948752        -1.121611
 H         3.318434         2.156334         0.674119
