19
Iteration:  4081charge 0 multiplicity 1
 C        -0.114168        -0.637304        -0.031294
 C         1.325031        -0.070747        -0.094081
 C         2.520281        -0.894355        -0.364665
 C         3.453235         0.288033        -0.737428
 C         4.840378         0.221178        -1.114949
 O         2.631254         0.835130        -1.927381
 C         1.682704         1.183583        -0.934374
 C         2.666419         1.417877         0.242404
 O         1.928860         0.633073         1.214482
 H        -0.207453        -1.364627         0.790538
 H        -0.993492         0.055763         0.194949
 H        -0.506918        -1.268321        -0.865566
 H         2.809259        -1.533602         0.559530
 H         2.343112        -1.475805        -1.329853
 H         5.081836         1.009547        -1.772593
 H         5.594690         0.255501        -0.221200
 H         4.948801        -0.746519        -1.657715
 H         0.885985         1.887610        -1.181331
 H         2.945943         2.425077         0.398671
