19
Iteration:  3388charge 0 multiplicity 1
 C        -0.081425        -0.656832        -0.066993
 C         1.345863        -0.039743         0.004609
 C         2.558193        -0.897503        -0.371529
 C         3.523938         0.278444        -0.805538
 C         4.870185         0.133108        -1.175042
 O         2.554204         0.830707        -1.919729
 C         1.676077         1.216181        -0.899672
 C         2.678047         1.389435         0.294397
 O         1.840707         0.692735         1.215480
 H        -0.235844        -1.499548         0.599082
 H        -0.860597         0.131376         0.230752
 H        -0.458579        -1.023175        -1.029035
 H         2.786268        -1.641072         0.387909
 H         2.432354        -1.324010        -1.379765
 H         5.233551         1.141152        -0.932774
 H         5.428556        -0.629060        -0.560766
 H         5.144332         0.120731        -2.259736
 H         0.732893         1.758511        -1.148429
 H         2.973697         2.347848         0.696681
