19
Iteration:  3317charge 0 multiplicity 1
 C        -0.036591        -0.668024         0.323622
 C         1.247490        -0.083296        -0.118474
 C         2.464722        -0.877029        -0.587295
 C         3.439731         0.302799        -0.854744
 C         4.952992         0.230991        -0.876732
 O         2.634089         0.877380        -1.908161
 C         1.623916         1.254784        -0.970516
 C         2.688879         1.364922         0.167261
 O         1.868240         0.580761         1.022573
 H        -0.163757        -1.420776         1.211938
 H        -0.735864         0.117965         0.526383
 H        -0.665212        -1.126173        -0.508903
 H         2.771814        -1.852744        -0.004614
 H         2.138590        -1.159544        -1.627139
 H         5.475704         1.163633        -0.757346
 H         5.200541        -0.413534         0.034031
 H         5.418795        -0.375367        -1.679764
 H         0.958584         2.014926        -1.369420
 H         3.333302         2.254791         0.431152
