19
Iteration:  4686charge 0 multiplicity 1
 C        -0.027553        -0.565146         0.140660
 C         1.312517        -0.043349        -0.175482
 C         2.511613        -0.925279        -0.466996
 C         3.354512         0.298136        -0.763437
 C         4.991674         0.205605        -1.047436
 O         2.588486         0.833093        -1.959494
 C         1.631118         1.284138        -0.962484
 C         2.652647         1.317069         0.238265
 O         1.851232         0.583224         1.162609
 H         0.187920        -1.666831         0.460966
 H        -0.543792        -0.215826         0.965496
 H        -0.589221        -0.545159        -0.770426
 H         2.721125        -1.585011         0.397019
 H         2.457696        -1.476830        -1.404151
 H         5.414450         0.861242        -1.716584
 H         5.242972         0.510735        -0.023779
 H         5.286852        -0.839383        -1.149096
 H         0.920475         2.051367        -1.203305
 H         3.087016         2.224303         0.722494
