19
Iteration:  2045charge 0 multiplicity 1
 C         0.024025        -0.634447        -0.034907
 C         1.373368        -0.040659        -0.022069
 C         2.523514        -0.917888        -0.380814
 C         3.408713         0.278826        -0.718519
 C         4.789317         0.105472        -1.216051
 O         2.699016         0.968881        -1.867360
 C         1.571055         1.229786        -0.871665
 C         2.698771         1.327012         0.240794
 O         1.800330         0.652179         1.157994
 H        -0.057697        -1.510426         0.705429
 H        -0.709397         0.229067         0.094623
 H        -0.320099        -1.145884        -0.972892
 H         3.079017        -1.387731         0.589795
 H         2.363674        -1.554990        -1.179946
 H         5.161015         1.074286        -1.505769
 H         5.544104        -0.563827        -0.674233
 H         4.597858        -0.359791        -2.181277
 H         0.708926         1.852126        -1.050596
 H         3.321597         2.093938         0.662948
