19
Iteration:   637charge 0 multiplicity 1
 C        -0.086157        -0.594408         0.246494
 C         1.293056        -0.065777        -0.098420
 C         2.506968        -0.975730        -0.562131
 C         3.396261         0.204249        -0.766715
 C         4.947305         0.250322        -0.880058
 O         2.635723         0.912088        -1.934897
 C         1.603730         1.280285        -0.933824
 C         2.592996         1.357000         0.158904
 O         1.929676         0.560804         1.015147
 H        -0.031150        -1.521100         0.811791
 H        -0.601487         0.164128         0.644683
 H        -0.608523        -0.787429        -0.763566
 H         2.803478        -1.599245         0.215477
 H         2.515381        -1.488701        -1.599137
 H         5.223122         1.297234        -1.155987
 H         5.405849         0.005721         0.035415
 H         5.432170        -0.404921        -1.638552
 H         0.900267         2.001762        -1.357045
 H         3.205348         2.126245         0.638790
