19
Iteration:   112
 C        -0.106564        -0.722387         0.203190
 C         1.231273        -0.025285        -0.110856
 C         2.539881        -0.832433        -0.570117
 C         3.390010         0.361417        -0.785625
 C         4.929459         0.171107        -0.878697
 O         2.664750         0.891515        -1.970029
 C         1.657771         1.256889        -0.963679
 C         2.628288         1.311437         0.209477
 O         1.881837         0.559390         1.074679
 H         0.254323        -1.509230         0.854673
 H        -0.734789        -0.007982         0.839500
 H        -0.559134        -1.068082        -0.641034
 H         2.983444        -1.572733         0.143567
 H         2.396049        -1.329305        -1.454149
 H         5.159543        -0.276765        -1.788279
 H         5.273787         1.254449        -1.121505
 H         5.416577        -0.220470        -0.069982
 H         0.862500         1.961698        -1.156767
 H         3.300626         2.138909         0.560136
