19
Iteration:  3844charge 0 multiplicity 1
 C        -0.086119        -0.585587         0.202801
 C         1.266087        -0.051813        -0.029558
 C         2.535310        -0.918836        -0.665108
 C         3.427490         0.301226        -0.907815
 C         4.874319         0.185296        -0.850579
 O         2.616404         0.866190        -1.947393
 C         1.656130         1.233144        -0.903831
 C         2.680626         1.347803         0.203873
 O         1.890729         0.576928         1.108754
 H         0.193977        -1.426135         0.846289
 H        -0.761895         0.216029         0.679750
 H        -0.338394        -0.970604        -0.803801
 H         2.960505        -1.679960        -0.002890
 H         2.265239        -1.277367        -1.615046
 H         5.312744         1.156824        -1.340250
 H         5.185464         0.204150         0.214630
 H         5.138305        -0.851078        -1.301752
 H         0.776934         1.921552        -1.144204
 H         3.248643         2.314026         0.375615
