19
Iteration:  1229
 C        -0.055329        -0.608747         0.036551
 C         1.317846        -0.026367        -0.067777
 C         2.486451        -0.908880        -0.389661
 C         3.399242         0.272074        -0.776226
 C         4.992502         0.249898        -1.112902
 O         2.610573         0.765882        -1.908545
 C         1.659229         1.190667        -0.886938
 C         2.707180         1.362946         0.167978
 O         1.799059         0.677301         1.170843
 H        -0.028092        -0.986228         1.089184
 H        -0.939847         0.130444        -0.039571
 H        -0.328973        -1.335431        -0.700812
 H         2.837186        -1.543404         0.519109
 H         2.262396        -1.608402        -1.262293
 H         5.266743         1.235873        -1.154513
 H         5.658422        -0.374432        -0.430237
 H         5.045604        -0.183822        -2.079113
 H         0.746513         1.740852        -1.189114
 H         3.182729         2.288385         0.492018
