19
Iteration:  1893
 C        -0.069243        -0.665394        -0.064473
 C         1.296826        -0.035931        -0.116782
 C         2.553419        -0.882966        -0.316631
 C         3.480205         0.250796        -0.692117
 C         4.902153         0.129827        -1.258656
 O         2.543700         0.880342        -1.886169
 C         1.679219         1.265329        -0.840485
 C         2.663095         1.343141         0.239451
 O         1.863778         0.695121         1.193182
 H        -0.132602        -1.529777         0.559967
 H        -0.981147        -0.188738         0.188128
 H        -0.164165        -0.934700        -1.110789
 H         2.738052        -1.447846         0.700935
 H         2.507484        -1.608236        -1.051365
 H         5.279314         1.072428        -1.695401
 H         5.577285        -0.229688        -0.396304
 H         4.906221        -0.641351        -1.985873
 H         0.913783         2.013789        -1.038932
 H         3.109888         2.269040         0.611352
