19
Iteration:  2557charge 0 multiplicity 1
 C        -0.059706        -0.622436         0.021150
 C         1.315620        -0.039936        -0.036245
 C         2.548303        -0.913501        -0.347978
 C         3.415729         0.309134        -0.732718
 C         4.935335         0.108330        -1.217350
 O         2.577275         0.873898        -1.913069
 C         1.692542         1.289105        -0.867109
 C         2.653837         1.314237         0.222705
 O         1.832235         0.679763         1.150567
 H        -0.432985        -1.124983         0.987574
 H        -0.779436         0.066942        -0.364516
 H        -0.161762        -1.429649        -0.770192
 H         2.820631        -1.457910         0.614389
 H         2.552887        -1.570246        -1.160799
 H         5.409350         1.060129        -1.628014
 H         5.513746        -0.407321        -0.409582
 H         4.897487        -0.685368        -1.927979
 H         0.941153         1.934651        -1.245234
 H         3.008617         2.256535         0.691486
