19
Iteration:   681
 C        -0.042267        -0.651140         0.045056
 C         1.378505        -0.067762        -0.072914
 C         2.604037        -0.957816        -0.370428
 C         3.378099         0.255701        -0.788475
 C         4.858838         0.101206        -1.097078
 O         2.629944         0.976902        -1.847930
 C         1.648357         1.291115        -0.938311
 C         2.629390         1.387271         0.174993
 O         1.820193         0.633005         1.141905
 H        -0.042900        -1.397223         0.860216
 H        -0.745676         0.088032         0.019682
 H        -0.309401        -1.389371        -0.824484
 H         2.933956        -1.565819         0.420282
 H         2.259010        -1.433900        -1.381327
 H         5.224619         1.136162        -0.955603
 H         5.375079        -0.524611        -0.393258
 H         5.084378        -0.290671        -2.110733
 H         0.748704         1.878471        -1.214892
 H         3.153556         2.277955         0.538599
