19
Iteration:  3510
 C        -0.049662        -0.555719         0.174992
 C         1.276198        -0.067720        -0.109259
 C         2.458417        -0.893486        -0.567335
 C         3.425112         0.261823        -0.797700
 C         4.885628         0.305643        -0.827952
 O         2.537158         0.933193        -2.026197
 C         1.628086         1.237923        -0.920171
 C         2.775570         1.234441         0.179167
 O         1.929162         0.481837         1.067543
 H         0.049499        -1.347177         1.055481
 H        -0.579483         0.403581         0.588824
 H        -0.655332        -1.002827        -0.622428
 H         2.776890        -1.469754         0.388417
 H         2.266498        -1.497505        -1.445894
 H         5.359946         1.216607        -1.158430
 H         5.373115        -0.091463         0.186492
 H         5.385007        -0.445970        -1.539269
 H         0.917988         1.986193        -1.171997
 H         3.192978         2.162521         0.555567
