19
Iteration:  2972
 C        -0.012936        -0.709923         0.257562
 C         1.288101        -0.083366        -0.096522
 C         2.483853        -0.876754        -0.497218
 C         3.367288         0.305018        -0.819855
 C         4.883172         0.038770        -0.873235
 O         2.653593         0.926167        -1.969132
 C         1.639567         1.238818        -0.993215
 C         2.607150         1.421063         0.058714
 O         1.940114         0.722617         1.093083
 H         0.080974        -1.340169         1.149027
 H        -0.905922        -0.024743         0.424543
 H        -0.319029        -1.429907        -0.595124
 H         2.764836        -1.483987         0.389403
 H         2.396961        -1.606508        -1.351825
 H         5.586392         0.933474        -0.695860
 H         5.010169        -0.615933        -0.034963
 H         5.107792        -0.402887        -1.812981
 H         0.914755         2.098625        -1.212303
 H         3.133930         2.331238         0.403767
