19
Iteration:  3797charge 0 multiplicity 1
 C        -0.163115        -0.628478         0.153274
 C         1.286284        -0.093205        -0.032902
 C         2.487922        -0.944932        -0.496333
 C         3.456219         0.301042        -0.857147
 C         4.918456         0.271568        -1.058618
 O         2.711894         0.913488        -1.923952
 C         1.642703         1.180235        -0.950794
 C         2.747112         1.317352         0.173524
 O         1.812243         0.620328         1.175198
 H        -0.167933        -1.437999         0.911382
 H        -0.735702         0.270994         0.498577
 H        -0.570749        -0.981165        -0.869190
 H         2.846592        -1.517733         0.356889
 H         2.375571        -1.565858        -1.422577
 H         5.274941         1.291463        -0.967311
 H         5.254174        -0.381882        -0.134223
 H         5.020198        -0.329146        -1.981058
 H         0.877622         1.957913        -1.150819
 H         3.277841         2.143961         0.655288
