19
Iteration:  2598
 C        -0.074891        -0.521598         0.138962
 C         1.304999        -0.096441        -0.015888
 C         2.532926        -0.999917        -0.381219
 C         3.417906         0.308283        -0.730300
 C         4.874832         0.222430        -1.097231
 O         2.635192         0.801214        -1.980487
 C         1.686797         1.294934        -1.008956
 C         2.678124         1.305010         0.210589
 O         1.816435         0.644280         1.124432
 H        -0.155861        -1.338673         0.840804
 H        -0.803399         0.226427         0.354633
 H        -0.235890        -0.865521        -0.846822
 H         2.755165        -1.747323         0.451684
 H         2.502946        -1.653428        -1.262529
 H         5.153224         1.266666        -1.325935
 H         5.500737        -0.290744        -0.255008
 H         5.079341        -0.239264        -2.038803
 H         0.946524         2.035908        -1.146409
 H         3.323202         2.158190         0.624664
