19
Iteration:  2278charge 0 multiplicity 1
 C        -0.109703        -0.603204         0.159010
 C         1.323741        -0.069752        -0.067304
 C         2.495679        -0.882170        -0.519892
 C         3.409907         0.353556        -0.820014
 C         4.856987         0.188384        -1.044050
 O         2.632084         0.831586        -1.941372
 C         1.713959         1.247320        -0.925693
 C         2.672696         1.303365         0.264588
 O         1.892971         0.589970         1.171506
 H        -0.141367        -1.669165         0.438478
 H        -0.761406         0.131444         0.728400
 H        -0.580555        -0.673718        -0.902216
 H         2.947480        -1.600153         0.088250
 H         2.213358        -1.262010        -1.526810
 H         5.295394         1.193694        -1.337641
 H         5.383406        -0.068613        -0.138871
 H         5.165452        -0.562741        -1.821907
 H         0.878032         1.941804        -1.292185
 H         3.184940         2.206189         0.618583
