19
Iteration:  1933charge 0 multiplicity 1
 C        -0.028877        -0.665560         0.126140
 C         1.275926        -0.042774        -0.107208
 C         2.502149        -0.932757        -0.512326
 C         3.414248         0.270256        -0.836558
 C         4.955523         0.084841        -1.023989
 O         2.606043         0.949135        -1.950977
 C         1.640349         1.268294        -0.918938
 C         2.597910         1.351583         0.249662
 O         1.888994         0.673504         1.174934
 H         0.144032        -1.638130         0.730139
 H        -0.691324         0.035499         0.775613
 H        -0.464774        -0.904437        -0.844311
 H         2.896522        -1.674884         0.238113
 H         2.359218        -1.494510        -1.497693
 H         5.364234         0.933713        -1.496889
 H         5.424320         0.133775        -0.045778
 H         5.215322        -0.884083        -1.567963
 H         0.807651         2.065118        -1.068578
 H         3.077979         2.299086         0.561967
