19
Iteration:  4306
 C        -0.064078        -0.675325         0.178106
 C         1.281184        -0.057308        -0.034844
 C         2.563385        -0.943414        -0.541758
 C         3.436475         0.210955        -0.852607
 C         4.997894         0.184963        -0.973901
 O         2.588136         0.883143        -2.002050
 C         1.643777         1.220743        -0.964733
 C         2.608338         1.406970         0.300260
 O         1.788421         0.732707         1.126799
 H         0.160301        -1.703281         0.697440
 H        -0.702097        -0.068769         0.771328
 H        -0.507022        -0.865765        -0.810564
 H         2.880751        -1.538306         0.293393
 H         2.302244        -1.586746        -1.370929
 H         5.384334         1.151158        -1.173966
 H         5.610714        -0.146908        -0.094030
 H         5.445228        -0.420023        -1.766849
 H         0.825259         1.819847        -1.313812
 H         3.306377         2.174439         0.533731
