19
Iteration:  4954charge 0 multiplicity 1
 C        -0.013340        -0.743818         0.165454
 C         1.307772        -0.038727        -0.106502
 C         2.450484        -0.891731        -0.534254
 C         3.428008         0.326792        -0.843491
 C         4.945519         0.055791        -1.004434
 O         2.636969         0.989595        -1.932049
 C         1.654638         1.276426        -0.848422
 C         2.651052         1.436662         0.245996
 O         1.781349         0.581155         1.075085
 H         0.187527        -1.363830         1.027796
 H        -0.677174         0.100512         0.302640
 H        -0.183553        -1.348002        -0.753928
 H         2.861213        -1.457112         0.294432
 H         2.285283        -1.536553        -1.407370
 H         5.489782         0.703142        -1.616042
 H         5.403512         0.045809        -0.018779
 H         5.071979        -0.958295        -1.417700
 H         1.050530         2.160452        -1.052149
 H         3.064627         2.305899         0.547635
