19
Iteration:  3167charge 0 multiplicity 1
 C        -0.015954        -0.661057         0.291492
 C         1.339668        -0.086908        -0.072467
 C         2.478815        -0.944405        -0.577479
 C         3.356033         0.259620        -0.802325
 C         4.852763         0.125567        -0.788527
 O         2.631333         0.922683        -1.976393
 C         1.636873         1.263852        -1.055137
 C         2.656918         1.389225         0.081970
 O         1.928427         0.651713         1.119538
 H        -0.078440        -1.426473         1.008894
 H        -0.602947         0.216326         0.583411
 H        -0.531627        -1.060300        -0.602888
 H         2.855396        -1.759133        -0.030367
 H         2.175154        -1.392636        -1.503110
 H         5.402702         1.200593        -0.749689
 H         5.327862        -0.515372        -0.033098
 H         5.135565        -0.105121        -1.828865
 H         0.842453         1.986652        -1.417917
 H         3.200645         2.349274         0.440547
