19
Iteration:  3230charge 0 multiplicity 1
 C        -0.111936        -0.592408         0.019408
 C         1.335234        -0.061137        -0.050056
 C         2.563379        -0.964150        -0.329742
 C         3.421871         0.298975        -0.815364
 C         4.805730         0.214747        -1.196442
 O         2.701919         0.880889        -1.882625
 C         1.667063         1.165087        -0.877025
 C         2.732885         1.343009         0.274480
 O         1.777253         0.651098         1.142902
 H        -0.187949        -1.582741         0.557313
 H        -0.658637         0.255709         0.313483
 H        -0.285333        -0.778733        -1.063102
 H         2.977725        -1.362142         0.661005
 H         2.453077        -1.656380        -1.148877
 H         4.927923         0.870050        -1.973935
 H         5.539034         0.360219        -0.382142
 H         4.913639        -0.749518        -1.672345
 H         0.900394         1.779829        -1.298556
 H         3.125941         2.336807         0.637629
