19
Iteration:  2010
 C        -0.193520        -0.624281         0.149095
 C         1.251194        -0.104786        -0.043719
 C         2.548492        -0.877575        -0.595005
 C         3.453876         0.287322        -0.830042
 C         4.919061         0.241116        -0.999248
 O         2.625978         0.854212        -1.987534
 C         1.644921         1.277864        -0.892844
 C         2.749408         1.303721         0.198328
 O         1.898829         0.593627         1.184967
 H        -0.154866        -1.120748         1.200708
 H        -0.967551         0.218198         0.414319
 H        -0.550112        -1.266690        -0.629716
 H         2.836681        -1.629790         0.210359
 H         2.302872        -1.469401        -1.462330
 H         5.311862         1.216675        -0.898618
 H         5.411809        -0.431719        -0.220348
 H         5.110873        -0.140805        -2.067941
 H         0.916064         2.129097        -1.175339
 H         3.249884         2.121251         0.718020
