19
Iteration:  4852charge 0 multiplicity 1
 C        -0.085012        -0.586306         0.111549
 C         1.305128        -0.067254        -0.074845
 C         2.427395        -1.010357        -0.492361
 C         3.441479         0.334238        -0.777025
 C         4.940044         0.248586        -0.986028
 O         2.670966         0.909201        -1.924435
 C         1.620367         1.195801        -1.003852
 C         2.626818         1.270059         0.188564
 O         1.923949         0.609580         1.184038
 H        -0.239387        -1.414253         0.800038
 H        -0.768394         0.165998         0.615549
 H        -0.331751        -0.717313        -0.942980
 H         2.627234        -1.501207         0.499648
 H         2.335206        -1.665896        -1.378451
 H         5.424890         1.296848        -1.092347
 H         5.646826        -0.333368        -0.379958
 H         5.047556        -0.154719        -1.983389
 H         0.709118         1.900830        -1.273036
 H         3.061780         2.336493         0.482206
