19
Iteration:  4581
 C        -0.086074        -0.566367         0.096061
 C         1.311000        -0.041518         0.031266
 C         2.542012        -0.980696        -0.391359
 C         3.366877         0.210247        -0.895840
 C         4.919913         0.285934        -1.136526
 O         2.689649         0.895771        -1.862348
 C         1.606298         1.134235        -0.963747
 C         2.632254         1.304455         0.225014
 O         1.864526         0.663887         1.144622
 H        -0.372592        -0.968143         1.048855
 H        -0.649815         0.301791        -0.352644
 H        -0.102426        -1.381304        -0.637367
 H         2.770413        -1.573392         0.505667
 H         2.228668        -1.585582        -1.239666
 H         5.276130         1.291592        -0.628141
 H         5.505134        -0.526244        -0.586879
 H         5.246304         0.393945        -2.195807
 H         0.812313         1.683642        -1.634313
 H         3.254267         2.086731         0.721205
