19
Iteration:  4539charge 0 multiplicity 1
 C        -0.089262        -0.600339         0.175191
 C         1.290503        -0.042743        -0.105116
 C         2.559988        -0.951390        -0.424237
 C         3.401380         0.333363        -0.785875
 C         4.923690         0.250862        -1.077551
 O         2.624925         0.826921        -1.881980
 C         1.647047         1.238603        -1.008931
 C         2.669891         1.325681         0.210549
 O         1.882451         0.592449         1.098833
 H        -0.072065        -1.349055         0.915580
 H        -0.886508         0.243231         0.370578
 H        -0.394934        -0.984965        -0.844890
 H         2.945465        -1.395256         0.511452
 H         2.462878        -1.793776        -1.125155
 H         5.352187         1.312705        -0.932263
 H         5.208013        -0.474176        -0.287647
 H         4.910539        -0.191655        -2.081136
 H         0.777138         1.885005        -1.407010
 H         3.086344         2.222259         0.691528
