19
Iteration:  4189charge 0 multiplicity 1
 C        -0.103952        -0.798652         0.259254
 C         1.293368        -0.030686        -0.080487
 C         2.530964        -0.869982        -0.450157
 C         3.387628         0.302933        -0.810801
 C         4.863931         0.150369        -0.941122
 O         2.691422         0.985900        -1.995511
 C         1.655138         1.236986        -1.020172
 C         2.694974         1.347332         0.111154
 O         1.813611         0.678861         1.100219
 H         0.137355        -1.516335         1.022358
 H        -0.870645        -0.108761         0.570345
 H        -0.347391        -1.448760        -0.562939
 H         2.967067        -1.431254         0.408003
 H         2.500033        -1.523593        -1.321679
 H         5.380690         1.081761        -0.984794
 H         5.233299        -0.504830        -0.055152
 H         5.227623        -0.483998        -1.776333
 H         0.936469         1.960919        -1.242518
 H         3.229179         2.124757         0.537212
