19
Iteration:  4465
 C        -0.048253        -0.682500         0.203176
 C         1.306315        -0.068365        -0.073871
 C         2.508389        -0.871976        -0.469293
 C         3.373982         0.274785        -0.815991
 C         4.861696         0.137347        -0.938716
 O         2.638070         1.003702        -1.953737
 C         1.660204         1.197303        -1.021487
 C         2.662774         1.327460         0.179130
 O         1.898227         0.628240         1.083836
 H         0.179727        -1.606481         0.713498
 H        -0.735518        -0.052251         0.890466
 H        -0.571394        -0.920807        -0.776098
 H         2.892723        -1.339856         0.459195
 H         2.535695        -1.641341        -1.277299
 H         5.110224         0.838700        -1.801523
 H         5.140832         0.490023         0.006351
 H         5.137027        -0.877015        -1.210189
 H         0.843785         1.929867        -1.289550
 H         3.327907         2.138931         0.532852
