19
Iteration:  3498
 C        -0.104960        -0.543808         0.262144
 C         1.285316        -0.015516        -0.094568
 C         2.476329        -0.931342        -0.580839
 C         3.378768         0.296044        -0.849952
 C         4.935825         0.267843        -0.831987
 O         2.604537         0.908907        -2.014449
 C         1.668813         1.283862        -0.960639
 C         2.640848         1.287793         0.136473
 O         1.982425         0.429623         1.101591
 H        -0.088232        -1.451481         0.976238
 H        -0.987039         0.146320         0.634405
 H        -0.364534        -0.937102        -0.724536
 H         2.722169        -1.747350         0.197703
 H         2.391022        -1.430469        -1.538558
 H         5.145305         1.262143        -1.142599
 H         5.234309         0.309184         0.276892
 H         5.346260        -0.571939        -1.434948
 H         0.906863         2.046523        -1.101047
 H         3.276969         2.049285         0.575310
