19
Iteration:  1761charge 0 multiplicity 1
 C        -0.050993        -0.700587         0.120222
 C         1.319019        -0.043848        -0.045823
 C         2.551004        -0.851845        -0.401229
 C         3.410338         0.373979        -0.733831
 C         4.894269         0.081886        -0.992086
 O         2.598492         0.880139        -2.026797
 C         1.611519         1.240317        -0.989946
 C         2.642118         1.370779         0.186315
 O         1.897638         0.653327         1.132510
 H        -0.030937        -1.647232         0.721560
 H        -0.779412         0.106478         0.481592
 H        -0.408341        -1.102687        -0.798596
 H         2.963305        -1.638449         0.324818
 H         2.433875        -1.191504        -1.354542
 H         5.155135         0.932365        -1.588952
 H         5.477760         0.109424         0.026571
 H         5.075969        -0.875969        -1.591421
 H         0.671996         1.875079        -1.285488
 H         3.317599         2.089045         0.737934
