19
Iteration:   310
 C        -0.001576        -0.643708         0.245418
 C         1.312131        -0.043336        -0.095116
 C         2.463613        -0.952903        -0.530015
 C         3.378722         0.326027        -0.786761
 C         4.866056         0.248356        -0.879173
 O         2.635027         0.857843        -1.961075
 C         1.696512         1.203320        -1.023997
 C         2.622597         1.348267         0.173729
 O         1.865491         0.583012         1.077903
 H         0.207862        -1.401647         1.005309
 H        -0.692638         0.117885         0.571876
 H        -0.404734        -1.127220        -0.695808
 H         2.986695        -1.423285         0.293237
 H         2.338712        -1.621950        -1.470414
 H         5.285524         1.179031        -0.436096
 H         5.360443        -0.644948        -0.477690
 H         5.144973         0.454552        -1.920031
 H         1.028887         2.041967        -1.388653
 H         3.018912         2.369354         0.486443
