19
Iteration:  2659charge 0 multiplicity 1
 C         0.019133        -0.646081         0.317407
 C         1.318084        -0.125000        -0.096948
 C         2.446183        -0.854186        -0.571727
 C         3.356701         0.339038        -0.786532
 C         4.857204         0.025334        -0.827968
 O         2.658639         0.902890        -1.970631
 C         1.677963         1.206644        -1.026885
 C         2.629772         1.388833         0.074646
 O         1.924618         0.717883         1.080021
 H         0.036518        -1.709874         0.578671
 H        -0.587295        -0.104116         1.136474
 H        -0.651989        -0.733045        -0.620046
 H         2.872458        -1.517269         0.091469
 H         2.139084        -1.208488        -1.593819
 H         5.257283         0.996646        -1.002907
 H         5.187301        -0.067186         0.147437
 H         5.254315        -0.807254        -1.498752
 H         0.787614         1.828118        -1.373921
 H         3.059408         2.214887         0.484892
