19
Iteration:  3661
 C        -0.098526        -0.583072         0.246488
 C         1.256962        -0.091391        -0.132493
 C         2.494766        -0.944098        -0.600194
 C         3.445388         0.226491        -0.909882
 C         4.919919         0.259700        -0.894734
 O         2.668352         0.984344        -1.953514
 C         1.631916         1.258074        -0.954847
 C         2.714224         1.260682         0.142442
 O         1.834181         0.522014         1.154285
 H        -0.128316        -1.361558         1.039600
 H        -0.598947         0.340520         0.684259
 H        -0.802375        -0.800477        -0.528681
 H         2.924777        -1.598338         0.253381
 H         2.318526        -1.709054        -1.381704
 H         5.284474         1.279763        -1.273472
 H         5.352682         0.391643         0.101960
 H         5.601892        -0.535495        -1.319583
 H         0.749001         1.901603        -1.032847
 H         3.224046         2.182686         0.563087
