19
Iteration:  3811
 C        -0.092216        -0.559088         0.186860
 C         1.271595        -0.041488        -0.088591
 C         2.488003        -0.982858        -0.474934
 C         3.358095         0.228964        -0.843637
 C         4.917817         0.242640        -0.934821
 O         2.655643         0.960927        -1.953835
 C         1.676710         1.265972        -0.933849
 C         2.636148         1.298649         0.165815
 O         1.927279         0.519102         1.088946
 H        -0.055008        -1.418725         0.842822
 H        -0.888992         0.084752         0.662793
 H        -0.475636        -0.970168        -0.760826
 H         2.845842        -1.448153         0.447085
 H         2.255592        -1.667333        -1.228285
 H         5.284585         1.264942        -1.228967
 H         5.399773        -0.131305        -0.066583
 H         5.542752        -0.187126        -1.738000
 H         0.859802         1.933493        -1.338066
 H         3.173878         2.257585         0.410607
