19
Iteration:  2710charge 0 multiplicity 1
 C        -0.059746        -0.665269         0.092570
 C         1.312893        -0.011674        -0.018935
 C         2.519527        -0.978592        -0.409835
 C         3.384537         0.242724        -0.792451
 C         4.837315         0.181938        -1.098497
 O         2.710857         0.842450        -1.910267
 C         1.687398         1.239125        -0.954727
 C         2.698229         1.348816         0.165880
 O         1.823268         0.744196         1.154062
 H        -0.269257        -1.313013         0.957812
 H        -0.744593         0.126533         0.244246
 H        -0.345192        -1.222454        -0.820025
 H         2.643955        -1.429833         0.623555
 H         2.214564        -1.616425        -1.213514
 H         5.166709         1.112781        -1.683644
 H         5.463886         0.071023        -0.185332
 H         5.045665        -0.651543        -1.830831
 H         0.854384         1.866420        -1.334587
 H         3.209419         2.222719         0.625986
