19
Iteration:  4037
 C        -0.031583        -0.721529         0.138398
 C         1.285843        -0.025596        -0.091057
 C         2.522844        -0.903775        -0.522876
 C         3.404227         0.349621        -0.828462
 C         4.869455         0.078824        -0.965523
 O         2.561249         0.926623        -1.997803
 C         1.735436         1.231233        -0.878781
 C         2.673791         1.371442         0.204870
 O         1.809718         0.651163         1.127994
 H         0.320658        -1.343779         1.016567
 H        -0.795425         0.012311         0.521918
 H        -0.454377        -1.285736        -0.750060
 H         3.048887        -1.402744         0.389228
 H         2.457691        -1.515770        -1.509140
 H         5.428472         0.847162        -1.452137
 H         5.342488         0.328538         0.081807
 H         5.255225        -0.883440        -1.291378
 H         1.063718         2.032538        -1.299640
 H         3.210447         2.241876         0.615118
