19
Iteration:  1165
 C        -0.064637        -0.657143         0.172654
 C         1.289664        -0.086405        -0.068682
 C         2.562111        -0.903064        -0.579822
 C         3.398593         0.326859        -0.833882
 C         4.862659         0.151800        -0.944647
 O         2.654212         0.802025        -1.989012
 C         1.621568         1.230149        -0.927869
 C         2.641016         1.423402         0.231759
 O         1.864418         0.710157         1.163947
 H         0.113568        -1.584535         0.695230
 H        -0.735294        -0.007821         0.843037
 H        -0.531784        -0.793822        -0.810155
 H         3.066782        -1.493967         0.169632
 H         2.424471        -1.469588        -1.533100
 H         5.402522         0.833393        -1.570098
 H         5.485064         0.042366         0.039998
 H         5.018482        -0.852704        -1.304128
 H         0.813250         1.818092        -1.253003
 H         3.252771         2.325222         0.418724
