19
Iteration:  1878charge 0 multiplicity 1
 C        -0.071005        -0.648465        -0.089534
 C         1.297728        -0.035446        -0.031322
 C         2.596783        -0.927934        -0.393558
 C         3.409147         0.280519        -0.884494
 C         4.909040         0.136191        -1.210938
 O         2.578427         0.821504        -1.880886
 C         1.647002         1.239136        -0.887494
 C         2.685213         1.415187         0.353628
 O         1.808814         0.698163         1.263383
 H        -0.107159        -1.453847         0.697185
 H        -0.664900         0.294189         0.092779
 H        -0.347351        -1.133979        -0.997669
 H         3.000746        -1.167196         0.619370
 H         2.462081        -1.856908        -1.115557
 H         5.344838         1.076591        -1.406274
 H         5.474952        -0.353195        -0.467886
 H         5.133420        -0.438072        -2.171237
 H         0.789684         1.873516        -1.357445
 H         3.367577         2.171420         0.810618
