19
Iteration:     1
 C        -0.068067        -0.657447         0.059456
 C         1.305467        -0.075940        -0.089831
 C         2.514870        -0.919096        -0.542650
 C         3.398045         0.320876        -0.789791
 C         4.878073         0.222361        -1.006232
 O         2.654524         0.962476        -1.884833
 C         1.671122         1.264701        -0.899810
 C         2.667973         1.307276         0.249966
 O         1.852172         0.539209         1.129304
 H        -0.067166        -1.478332         0.784308
 H        -0.777132         0.100956         0.403892
 H        -0.416392        -1.049969        -0.901059
 H         2.851171        -1.573955         0.264059
 H         2.368707        -1.478373        -1.469237
 H         5.357471        -0.222062        -0.128360
 H         5.104124        -0.405989        -1.874184
 H         5.313543         1.210990        -1.178165
 H         0.907074         1.989641        -1.175889
 H         3.184515         2.162826         0.682107
