19
Iteration:  2990
 C         0.000531        -0.709888         0.301521
 C         1.268248         0.021676        -0.157951
 C         2.506802        -0.938084        -0.486082
 C         3.334325         0.315159        -0.783363
 C         4.842087         0.086189        -0.848110
 O         2.619209         0.903729        -2.063412
 C         1.661458         1.333652        -1.073066
 C         2.733328         1.340588         0.164855
 O         1.841019         0.648963         1.097843
 H         0.459884        -1.355989         1.116038
 H        -0.524763         0.016219         0.815367
 H        -0.539142        -1.207630        -0.472765
 H         2.867432        -1.489308         0.381894
 H         2.369256        -1.533713        -1.320707
 H         5.519216         0.956302        -0.909073
 H         5.387780        -0.299727         0.089313
 H         5.223443        -0.556360        -1.650738
 H         0.823107         1.768997        -1.524686
 H         3.224001         2.307425         0.587987
