19
Iteration:   147
 C        -0.032167        -0.632232         0.158460
 C         1.322161        -0.094157        -0.059174
 C         2.480519        -0.963228        -0.516104
 C         3.399611         0.263167        -0.851992
 C         4.909439         0.212727        -0.921510
 O         2.717497         0.968266        -1.981481
 C         1.636630         1.224110        -0.904816
 C         2.577988         1.326019         0.158493
 O         1.849087         0.611245         1.128507
 H         0.066470        -1.420665         0.887704
 H        -0.730116         0.057564         0.623708
 H        -0.641517        -1.142259        -0.567933
 H         3.004780        -1.546060         0.186941
 H         2.230317        -1.430453        -1.498346
 H         5.182486         0.352075        -1.965677
 H         5.197023         1.121587        -0.384244
 H         5.562964        -0.587835        -0.589839
 H         0.774627         1.852444        -1.278704
 H         3.101724         2.269272         0.560551
