19
Iteration:  1649charge 0 multiplicity 1
 C        -0.096659        -0.703828         0.304975
 C         1.280764        -0.118805        -0.066126
 C         2.565512        -0.924472        -0.483257
 C         3.436784         0.333104        -0.793755
 C         4.883993         0.138791        -0.849371
 O         2.633288         0.954412        -1.957089
 C         1.595269         1.269908        -1.023859
 C         2.658240         1.339394         0.022300
 O         1.904679         0.668976         1.027772
 H         0.071370        -1.476838         1.101713
 H        -0.636623         0.175576         0.619346
 H        -0.684443        -1.183125        -0.475765
 H         2.847499        -1.594533         0.220716
 H         2.440066        -1.503233        -1.431931
 H         5.487692         1.033372        -0.509490
 H         5.122003        -0.561929        -0.093066
 H         5.300640        -0.283698        -1.850328
 H         0.738188         1.994217        -1.232782
 H         3.162431         2.256965         0.270948
