19
Iteration:   938charge 0 multiplicity 1
 C        -0.072507        -0.570854         0.170899
 C         1.270039        -0.073646        -0.087972
 C         2.459569        -0.949499        -0.543880
 C         3.431991         0.305539        -0.798212
 C         4.926783         0.229499        -0.938965
 O         2.630016         0.849379        -1.883477
 C         1.616165         1.186328        -0.943346
 C         2.691784         1.354900         0.107101
 O         1.894687         0.602595         1.108880
 H         0.156033        -1.402586         0.848663
 H        -0.593199         0.245306         0.787128
 H        -0.575766        -0.908836        -0.735233
 H         2.764987        -1.718366         0.193858
 H         2.387526        -1.506677        -1.549242
 H         5.319121         1.292353        -1.176613
 H         5.300346         0.049552         0.043116
 H         5.400494        -0.458212        -1.674893
 H         0.885193         1.866900        -1.405324
 H         3.015584         2.352595         0.563178
