19
Iteration:  4049
 C        -0.011412        -0.694390         0.096064
 C         1.350502        -0.087979        -0.003908
 C         2.568955        -0.861716        -0.461026
 C         3.403117         0.312237        -0.854108
 C         4.879080         0.110541        -0.979496
 O         2.590944         0.941884        -1.996587
 C         1.652365         1.277751        -0.962658
 C         2.708467         1.346139         0.189285
 O         1.787246         0.648630         1.178152
 H        -0.144896        -1.448674         0.884566
 H        -0.798591         0.116423         0.238910
 H        -0.238025        -1.240251        -0.834083
 H         3.029319        -1.555162         0.303778
 H         2.284399        -1.509281        -1.313992
 H         5.271973         0.707991        -1.728893
 H         5.317763         0.208796         0.029305
 H         4.973298        -0.931246        -1.261751
 H         0.832027         1.973889        -1.022335
 H         3.150781         2.239964         0.597565
