19
Iteration:  2986charge 0 multiplicity 1
 C        -0.003562        -0.729064         0.290724
 C         1.268321         0.007926        -0.172827
 C         2.507828        -0.964625        -0.464791
 C         3.382207         0.339092        -0.801344
 C         4.833495         0.062440        -0.827287
 O         2.614578         0.917042        -2.057684
 C         1.635650         1.330726        -1.067814
 C         2.727719         1.375524         0.160564
 O         1.862626         0.659105         1.124848
 H         0.413350        -1.291449         1.086778
 H        -0.635245         0.099529         0.804897
 H        -0.505806        -1.298328        -0.498022
 H         2.867272        -1.497640         0.439717
 H         2.362365        -1.599722        -1.467135
 H         5.390487         0.986517        -0.869065
 H         5.363914        -0.439209        -0.007819
 H         5.243913        -0.576896        -1.715589
 H         0.793521         1.922080        -1.574848
 H         3.188836         2.254010         0.401005
