19
Iteration:  3412
 C        -0.008903        -0.696506        -0.044394
 C         1.336443         0.018699         0.022030
 C         2.561096        -0.974855        -0.394725
 C         3.456508         0.279554        -0.785629
 C         4.795786         0.145220        -1.140866
 O         2.643774         0.949878        -1.842820
 C         1.666387         1.278077        -0.887257
 C         2.675658         1.339218         0.191421
 O         1.788435         0.680038         1.211138
 H        -0.071175        -1.660610         0.528405
 H        -0.915965        -0.068775         0.033049
 H        -0.072053        -1.006294        -1.076032
 H         2.903042        -1.469980         0.570910
 H         2.405877        -1.688539        -1.197244
 H         5.327953         0.933879        -1.624074
 H         5.487457        -0.648363        -0.573708
 H         4.528220        -0.416878        -2.132906
 H         0.826448         1.850966        -1.185596
 H         3.212247         2.268619         0.343399
