19
Iteration:   478
 C        -0.099889        -0.632089         0.196164
 C         1.291706        -0.042759        -0.096849
 C         2.572290        -0.959758        -0.606647
 C         3.431676         0.293630        -0.805692
 C         4.932694         0.267688        -0.892367
 O         2.628204         0.937064        -1.936728
 C         1.595776         1.180714        -0.932323
 C         2.669173         1.295807         0.103821
 O         1.878726         0.617130         1.144887
 H        -0.106672        -1.411148         0.985372
 H        -0.864988         0.165741         0.520585
 H        -0.687692        -1.001020        -0.607923
 H         2.907576        -1.586314         0.323725
 H         2.397476        -1.654035        -1.392139
 H         5.478725         1.190818        -0.886315
 H         5.127060        -0.420740        -0.042501
 H         5.267093        -0.215084        -1.812875
 H         0.795105         1.855881        -1.272755
 H         3.199395         2.207116         0.347421
