19
Iteration:  3047charge 0 multiplicity 1
 C        -0.059920        -0.517555         0.064906
 C         1.321325        -0.064797        -0.016800
 C         2.550641        -0.933412        -0.378322
 C         3.369675         0.313523        -0.783420
 C         4.909170         0.208878        -1.041779
 O         2.607192         0.771370        -1.943013
 C         1.643313         1.186488        -0.944717
 C         2.714384         1.345178         0.181001
 O         1.869646         0.610998         1.135392
 H        -0.361883        -1.473190         0.456581
 H        -0.685817         0.253415         0.515408
 H        -0.482262        -0.572209        -0.973239
 H         2.887274        -1.504543         0.475059
 H         2.392764        -1.595227        -1.184488
 H         5.046919         1.044075        -1.799209
 H         5.413463         0.444273        -0.103511
 H         5.202176        -0.676951        -1.538564
 H         0.908863         1.939089        -1.283674
 H         3.011901         2.390447         0.481223
