19
Iteration:  4941
 C         0.022634        -0.715111         0.103310
 C         1.314769        -0.034847        -0.093060
 C         2.545018        -0.844323        -0.528172
 C         3.370458         0.338880        -0.790182
 C         4.818266         0.048253        -0.975103
 O         2.633810         0.980344        -1.928921
 C         1.670496         1.328482        -0.993452
 C         2.716875         1.337453         0.228700
 O         1.832957         0.593879         1.180944
 H         0.090583        -1.449826         0.841590
 H        -0.855357        -0.132351         0.409936
 H        -0.450648        -1.257351        -0.730333
 H         2.775419        -1.529317         0.276997
 H         2.399055        -1.435209        -1.464684
 H         5.084252         0.793698        -1.742899
 H         5.356855         0.254645        -0.063334
 H         4.990529        -0.956741        -1.317002
 H         0.729300         1.734917        -1.366603
 H         3.254964         2.128853         0.790286
