19
Iteration:  4641charge 0 multiplicity 1
 C         0.059407        -0.743397         0.169492
 C         1.283228        -0.061060        -0.067330
 C         2.459363        -0.950650        -0.521659
 C         3.422235         0.295845        -0.845901
 C         4.896833         0.068902        -0.980945
 O         2.713438         1.019292        -1.967471
 C         1.677310         1.235568        -0.949018
 C         2.556954         1.428513         0.203362
 O         1.831486         0.677523         1.167251
 H         0.062740        -1.490049         1.032225
 H        -0.645001        -0.062761         0.553648
 H        -0.379096        -1.170134        -0.720420
 H         2.665661        -1.704363         0.239314
 H         2.154466        -1.512431        -1.429347
 H         5.347324         0.942904        -1.383913
 H         5.320938        -0.160297        -0.004594
 H         4.948767        -0.791695        -1.674828
 H         0.985122         1.921624        -1.266407
 H         2.902985         2.437827         0.450731
