19
Iteration:  3692
 C        -0.070364        -0.625083         0.197836
 C         1.279559        -0.039407        -0.070595
 C         2.457738        -0.907757        -0.597318
 C         3.432929         0.331386        -0.780526
 C         4.842808         0.220240        -0.928656
 O         2.702432         0.885360        -1.970138
 C         1.661074         1.275717        -1.005407
 C         2.669257         1.333842         0.212958
 O         1.895043         0.496491         1.173867
 H         0.004921        -1.416422         0.914903
 H        -0.794444         0.167140         0.567509
 H        -0.467856        -0.964158        -0.724970
 H         2.864014        -1.662852         0.136223
 H         2.340079        -1.377636        -1.556967
 H         5.206560         1.219676        -1.495559
 H         5.318714         0.044936         0.051153
 H         5.106125        -0.559888        -1.721868
 H         0.752043         1.924648        -1.240487
 H         3.180628         2.278581         0.561985
