19
Iteration:  4223
 C        -0.009930        -0.649738         0.087821
 C         1.295524        -0.007124        -0.047254
 C         2.564169        -0.917733        -0.480886
 C         3.399000         0.289326        -0.653768
 C         4.903295         0.205818        -1.099333
 O         2.620175         0.865882        -1.947712
 C         1.635443         1.174948        -1.012056
 C         2.665842         1.348069         0.233645
 O         1.808886         0.666425         1.178961
 H         0.072792        -1.149037         1.006356
 H        -0.907104        -0.021991         0.219888
 H        -0.270977        -1.392115        -0.639909
 H         2.762710        -1.694443         0.306981
 H         2.467561        -1.334246        -1.484123
 H         5.178433         1.071768        -1.662988
 H         5.439528         0.252902        -0.124204
 H         5.075664        -0.744977        -1.637955
 H         0.931967         1.861053        -1.445727
 H         3.284556         2.149137         0.518248
