19
Iteration:  1764charge 0 multiplicity 1
 C        -0.046722        -0.701668         0.159024
 C         1.331976        -0.017914        -0.005147
 C         2.527293        -0.837978        -0.429817
 C         3.393021         0.407563        -0.752971
 C         4.903728         0.082051        -0.969484
 O         2.629821         0.865347        -2.037346
 C         1.604873         1.255124        -0.991966
 C         2.628043         1.354629         0.162997
 O         1.898711         0.623456         1.137207
 H        -0.027374        -1.635654         0.679104
 H        -0.782119         0.030883         0.445073
 H        -0.484869        -1.151826        -0.832591
 H         2.918361        -1.621949         0.269272
 H         2.325593        -1.260092        -1.388258
 H         5.314146         0.975458        -1.553213
 H         5.454897         0.091154         0.013418
 H         4.983849        -0.786810        -1.536443
 H         0.790543         1.799468        -1.335500
 H         3.287408         2.077304         0.659778
