19
Iteration:  1302charge 0 multiplicity 1
 C        -0.062448        -0.771131         0.306391
 C         1.276323        -0.095017        -0.027414
 C         2.525800        -0.875412        -0.576037
 C         3.408449         0.277273        -0.801274
 C         4.900586         0.141054        -0.858871
 O         2.684982         0.836888        -2.053930
 C         1.678508         1.353960        -1.007382
 C         2.612275         1.414399         0.150295
 O         1.853469         0.711086         1.073218
 H         0.087341        -1.569981         1.065136
 H        -0.690117        -0.065041         0.796632
 H        -0.665462        -1.082665        -0.520076
 H         2.776764        -1.596763         0.207717
 H         2.362691        -1.429588        -1.403380
 H         5.307473         1.182154        -1.002728
 H         5.241172        -0.381232         0.026588
 H         5.011684        -0.557356        -1.753734
 H         0.918627         2.102009        -1.425464
 H         3.305218         2.129214         0.553151
