19
Iteration:  3958
 C        -0.039850        -0.557919         0.119575
 C         1.325960        -0.001313        -0.102765
 C         2.507472        -0.970598        -0.373010
 C         3.463232         0.324844        -0.761083
 C         4.885278         0.233124        -0.995899
 O         2.549252         0.834812        -2.024708
 C         1.653607         1.227825        -0.912593
 C         2.649477         1.377482         0.166828
 O         1.897907         0.536936         1.123981
 H        -0.233492        -1.486552         0.725918
 H        -0.755399         0.186815         0.343741
 H        -0.362883        -1.005054        -0.843076
 H         2.857164        -1.443769         0.585352
 H         2.433240        -1.547710        -1.389403
 H         5.429612         1.143185        -0.617666
 H         5.410872        -0.616176        -0.440172
 H         5.174749        -0.005085        -2.025445
 H         0.781955         1.838731        -1.249498
 H         3.109342         2.219644         0.716589
