19
Iteration:   554charge 0 multiplicity 1
 C        -0.008184        -0.666347         0.032871
 C         1.309402        -0.094594        -0.000180
 C         2.591697        -0.893033        -0.470717
 C         3.376996         0.308883        -0.856018
 C         4.841733         0.133296        -1.101158
 O         2.656021         0.934039        -1.895087
 C         1.721769         1.261335        -0.930210
 C         2.609332         1.399477         0.273558
 O         1.773956         0.603868         1.192129
 H        -0.308064        -1.394395         0.815335
 H        -0.939974        -0.016205         0.259996
 H        -0.094285        -1.120776        -0.933032
 H         3.166279        -1.249304         0.484594
 H         2.549559        -1.662296        -1.219010
 H         5.341256         1.054352        -1.405481
 H         5.396119        -0.353695        -0.218104
 H         4.864088        -0.570112        -1.952804
 H         0.982380         1.906551        -1.466143
 H         3.189526         2.250062         0.600428
