19
Iteration:   434
 C        -0.034495        -0.645078         0.181941
 C         1.318298        -0.092365        -0.097946
 C         2.546237        -0.978419        -0.576193
 C         3.377755         0.303408        -0.752505
 C         4.864587         0.225048        -0.900959
 O         2.634330         0.920900        -1.949724
 C         1.607116         1.269161        -0.963126
 C         2.697785         1.302617         0.141192
 O         1.833238         0.638052         1.125612
 H         0.090175        -1.586415         0.754867
 H        -0.694121        -0.027453         0.892897
 H        -0.453168        -0.907089        -0.781592
 H         2.966180        -1.612782         0.284640
 H         2.508368        -1.391846        -1.582169
 H         5.117039         1.051364        -1.551629
 H         5.371637         0.277604         0.074792
 H         5.206602        -0.670646        -1.446892
 H         0.925374         2.056134        -1.327048
 H         3.292125         2.091578         0.566967
