19
Iteration:  2113
 C        -0.052484        -0.647030         0.164984
 C         1.292695        -0.130781        -0.031427
 C         2.544654        -0.977008        -0.546305
 C         3.306382         0.284277        -0.858706
 C         4.771825         0.192047        -0.949033
 O         2.671862         0.974077        -1.968114
 C         1.707602         1.317966        -0.887612
 C         2.706835         1.325153         0.219272
 O         1.923191         0.614757         1.090717
 H        -0.080837        -1.611370         0.647604
 H        -0.572778         0.120950         0.691820
 H        -0.658573        -0.755195        -0.834629
 H         2.929305        -1.744802         0.237546
 H         2.207703        -1.517772        -1.480094
 H         5.190619         1.130362        -1.460060
 H         5.153739        -0.007612         0.033646
 H         4.999010        -0.635226        -1.549071
 H         0.893638         1.977037        -1.118257
 H         3.433709         2.085083         0.623518
