19
Iteration:   325
 C        -0.042966        -0.666375         0.146992
 C         1.368967        -0.081177        -0.121792
 C         2.578572        -0.964742        -0.450459
 C         3.366305         0.267456        -0.783124
 C         4.842979         0.284111        -0.993498
 O         2.677655         0.854632        -1.947204
 C         1.598024         1.302611        -0.969738
 C         2.643478         1.361487         0.186849
 O         1.852904         0.658041         1.130044
 H        -0.116091        -1.334225         1.008708
 H        -0.768751         0.105255         0.421777
 H        -0.532531        -1.230047        -0.647612
 H         2.755595        -1.717053         0.333919
 H         2.494515        -1.583245        -1.375148
 H         5.312249         1.030901        -0.366320
 H         5.258708        -0.583554        -0.508373
 H         5.082259         0.110239        -2.066689
 H         0.729831         1.785359        -1.434487
 H         3.375815         2.013401         0.613398
