19
Iteration:  2394charge 0 multiplicity 1
 C        -0.131820        -0.725349        -0.044362
 C         1.244752        -0.042207        -0.046100
 C         2.580910        -0.848824        -0.313574
 C         3.431443         0.322316        -0.791691
 C         4.849226         0.086536        -1.238408
 O         2.685696         0.922011        -1.936184
 C         1.656069         1.300287        -0.872477
 C         2.721436         1.330316         0.267692
 O         1.835948         0.643514         1.225930
 H        -0.162814        -1.426055         0.821044
 H        -0.807879         0.080671        -0.074937
 H        -0.300386        -1.276578        -0.998023
 H         2.732362        -1.364817         0.757077
 H         2.359484        -1.582596        -1.041169
 H         5.261608         1.054628        -1.635239
 H         5.555519        -0.319340        -0.488143
 H         4.849941        -0.669316        -1.966081
 H         0.912051         2.038142        -1.054971
 H         3.373068         2.180178         0.607892
