19
Iteration:   260
 C         0.003539        -0.707730         0.189958
 C         1.385139        -0.083633        -0.053613
 C         2.503969        -0.894586        -0.440452
 C         3.391359         0.316550        -0.785888
 C         4.827073         0.209741        -0.943864
 O         2.688428         0.898766        -2.007674
 C         1.624269         1.236327        -0.953167
 C         2.648078         1.403027         0.113118
 O         1.802431         0.593320         1.113047
 H         0.116452        -1.571000         0.868715
 H        -0.536417         0.165152         0.579146
 H        -0.429595        -0.942239        -0.818459
 H         2.782850        -1.666393         0.404109
 H         2.359691        -1.413954        -1.402150
 H         5.358639         1.143081        -0.670388
 H         5.092176        -0.634264        -0.279459
 H         5.151699        -0.027427        -2.031699
 H         0.823291         1.906111        -1.233652
 H         3.168525         2.246895         0.471607
