19
Iteration:  4513charge 0 multiplicity 1
 C        -0.066221        -0.762426         0.163609
 C         1.311892        -0.079170        -0.017809
 C         2.542073        -0.905796        -0.451508
 C         3.381718         0.234242        -0.840620
 C         4.885599         0.122103        -0.964282
 O         2.674035         0.997558        -1.993419
 C         1.618786         1.220955        -0.961390
 C         2.710544         1.364433         0.122613
 O         1.859030         0.727378         1.156336
 H        -0.021954        -1.752852         0.713440
 H        -0.598007        -0.072052         0.672532
 H        -0.537933        -0.836793        -0.777039
 H         2.962191        -1.702187         0.179003
 H         2.128799        -1.354853        -1.366933
 H         5.031777         1.085863        -1.305167
 H         5.198151        -0.006677         0.092918
 H         5.130967        -0.633889        -1.712251
 H         0.802383         1.877582        -1.125520
 H         3.109481         2.306015         0.502796
