19
Iteration:  3564
 C        -0.068367        -0.686356        -0.004980
 C         1.249143        -0.069134        -0.158583
 C         2.497235        -0.929862        -0.367302
 C         3.492635         0.342683        -0.739589
 C         4.874735         0.152717        -1.220496
 O         2.683723         0.912082        -1.857074
 C         1.641021         1.287100        -0.886118
 C         2.668348         1.375943         0.307578
 O         1.842869         0.652496         1.183430
 H        -0.023969        -1.524747         0.782326
 H        -0.894536        -0.053535         0.427217
 H        -0.246363        -1.226394        -0.922916
 H         2.615477        -1.619991         0.533828
 H         2.502130        -1.494132        -1.299126
 H         5.566710         0.909403        -1.128484
 H         5.306563        -0.709308        -0.676870
 H         4.734885        -0.309920        -2.191294
 H         0.862988         1.877952        -1.322910
 H         3.237931         2.284637         0.508842
