19
Iteration:  2755
 C        -0.107498        -0.514800        -0.027930
 C         1.319103        -0.122692        -0.011138
 C         2.591234        -0.976397        -0.299618
 C         3.335467         0.279869        -0.857366
 C         4.880884         0.228269        -1.077925
 O         2.584974         0.785627        -1.917641
 C         1.664957         1.220264        -0.943048
 C         2.711827         1.374556         0.186978
 O         1.891180         0.678378         1.173850
 H        -0.419285        -0.920063         0.886039
 H        -0.857402         0.220821        -0.233914
 H        -0.294993        -1.382132        -0.697250
 H         3.172880        -1.111895         0.635836
 H         2.523882        -1.876483        -0.919577
 H         5.384524         1.220693        -1.102821
 H         5.251322        -0.318469        -0.244715
 H         5.028169        -0.312208        -2.110656
 H         0.798657         1.872197        -1.309587
 H         3.383454         2.147518         0.450709
