19
Iteration:  2964charge 0 multiplicity 1
 C        -0.043969        -0.736432         0.221933
 C         1.299537        -0.038049         0.014202
 C         2.487399        -0.852059        -0.501478
 C         3.340346         0.325642        -0.804193
 C         4.864983         0.072844        -0.923009
 O         2.677608         0.898785        -1.951099
 C         1.635412         1.211551        -0.971050
 C         2.654937         1.387720         0.096955
 O         1.916367         0.733063         1.045591
 H        -0.050283        -1.217186         1.151786
 H        -0.793966         0.125253         0.221375
 H        -0.155280        -1.349327        -0.665837
 H         2.970701        -1.430818         0.312669
 H         2.195145        -1.487107        -1.459565
 H         5.640790         0.747362        -0.648465
 H         5.181531        -0.653946        -0.171055
 H         5.289363        -0.490159        -1.840410
 H         0.695288         1.733548        -1.299123
 H         3.002475         2.302487         0.372510
