19
Iteration:  4000
 C        -0.079269        -0.644758         0.275363
 C         1.294266        -0.131397        -0.019645
 C         2.442939        -0.936631        -0.552627
 C         3.367070         0.288312        -0.799073
 C         4.841138         0.220250        -0.921061
 O         2.767382         0.954064        -2.002088
 C         1.704336         1.222653        -1.057206
 C         2.648108         1.367572         0.202190
 O         1.878216         0.622957         1.116654
 H        -0.011825        -1.640648         0.983470
 H        -0.809179        -0.027004         0.800624
 H        -0.523822        -1.151779        -0.634325
 H         2.749973        -1.766995         0.123205
 H         2.309929        -1.460040        -1.558191
 H         5.186184         1.342431        -1.100477
 H         5.199636        -0.300240         0.038160
 H         5.152470        -0.343833        -1.869879
 H         0.971688         1.977051        -1.429902
 H         3.170255         2.345287         0.367136
