19
Iteration:  1008charge 0 multiplicity 1
 C        -0.078754        -0.705735         0.133122
 C         1.342417        -0.034040        -0.035679
 C         2.533637        -0.858592        -0.463693
 C         3.421589         0.276208        -0.730689
 C         4.874835         0.115233        -1.003800
 O         2.575608         0.868371        -1.982414
 C         1.691708         1.276991        -1.016690
 C         2.689399         1.396087         0.196781
 O         1.820174         0.650910         1.171445
 H         0.066716        -1.640029         0.711606
 H        -0.769254        -0.024710         0.570133
 H        -0.319635        -1.078687        -0.907004
 H         2.786727        -1.694301         0.246787
 H         2.372757        -1.384820        -1.429665
 H         5.217024         1.132981        -1.414811
 H         5.424044        -0.020761         0.018255
 H         5.118960        -0.656959        -1.767460
 H         1.040963         2.130133        -1.310550
 H         3.368999         2.172804         0.399514
