19
Iteration:  3377charge 0 multiplicity 1
 C        -0.189407        -0.633067         0.032876
 C         1.290740        -0.028563        -0.082465
 C         2.616316        -0.886609        -0.400490
 C         3.397157         0.286153        -0.781811
 C         4.956452         0.229511        -1.080938
 O         2.557083         0.829530        -1.957179
 C         1.696947         1.204379        -0.878405
 C         2.687878         1.389996         0.215048
 O         1.865842         0.591569         1.190506
 H        -0.139538        -1.421117         0.753258
 H        -0.906378         0.169744         0.391593
 H        -0.352419        -0.920664        -0.998395
 H         2.932962        -1.474133         0.461158
 H         2.452020        -1.611565        -1.201545
 H         5.589590         1.067225        -0.764724
 H         5.455202        -0.703879        -0.709823
 H         4.921191         0.040818        -2.179257
 H         0.938343         1.932550        -1.234045
 H         3.208890         2.275394         0.557223
