19
Iteration:  2166
 C        -0.081725        -0.560893         0.294800
 C         1.273675        -0.084649        -0.117788
 C         2.547782        -0.990395        -0.670328
 C         3.358806         0.260263        -0.852987
 C         4.867959         0.249135        -0.939077
 O         2.609762         0.954183        -1.921640
 C         1.701515         1.308259        -0.985163
 C         2.702371         1.283385         0.222646
 O         1.890552         0.502696         1.078422
 H        -0.064579        -1.058944         1.277904
 H        -0.590108         0.381272         0.440563
 H        -0.668367        -1.227767        -0.459646
 H         2.943775        -1.523672         0.245667
 H         2.365811        -1.576699        -1.456497
 H         5.255529         1.258750        -0.595289
 H         5.139611        -0.231380         0.029829
 H         5.287142        -0.227023        -1.788608
 H         0.973508         2.011438        -1.243790
 H         3.250331         2.132693         0.694887
