19
Iteration:  3923charge 0 multiplicity 1
 C        -0.078885        -0.680992        -0.025806
 C         1.289333        -0.057254         0.030393
 C         2.544350        -0.959382        -0.398217
 C         3.421559         0.264214        -0.731429
 C         4.917349         0.164812        -1.160330
 O         2.630799         0.918916        -1.916202
 C         1.644319         1.188796        -0.855928
 C         2.715352         1.357011         0.228696
 O         1.817751         0.736381         1.148529
 H        -0.266879        -1.465691         0.805415
 H        -0.825942         0.130306         0.084418
 H        -0.185341        -1.058565        -1.022296
 H         2.828831        -1.709909         0.345794
 H         2.368449        -1.588351        -1.287173
 H         5.374370         1.229499        -1.154816
 H         5.412354        -0.488758        -0.473164
 H         4.892828        -0.181448        -2.254686
 H         0.895908         1.886193        -1.042522
 H         3.230771         2.274850         0.332946
