19
Iteration:   841charge 0 multiplicity 1
 C        -0.070654        -0.683908         0.118261
 C         1.325793        -0.022059        -0.105268
 C         2.568516        -0.914595        -0.473797
 C         3.317319         0.275969        -0.778091
 C         4.892872         0.099339        -1.038554
 O         2.662229         0.942935        -1.887603
 C         1.630225         1.236351        -0.907286
 C         2.693806         1.373020         0.181209
 O         1.810424         0.654224         1.120438
 H        -0.177977        -1.372546         0.904604
 H        -0.875750         0.068838         0.341795
 H        -0.334504        -1.230682        -0.808472
 H         3.036823        -1.314471         0.390474
 H         2.619116        -1.797679        -1.206854
 H         5.496937         1.111337        -1.149834
 H         5.575478        -0.352079        -0.365030
 H         5.113739        -0.496337        -1.971973
 H         0.865430         1.939020        -1.251788
 H         3.161461         2.359926         0.526144
