19
Iteration:   566
 C        -0.044875        -0.675696         0.034270
 C         1.370417        -0.053658        -0.080651
 C         2.579216        -0.858114        -0.476602
 C         3.409362         0.334176        -0.784925
 C         4.800491         0.101303        -1.080559
 O         2.694870         0.914257        -1.928331
 C         1.590133         1.219604        -0.913091
 C         2.625925         1.346227         0.265810
 O         1.845683         0.625978         1.172760
 H         0.143646        -1.490147         0.740200
 H        -0.715869         0.286921         0.201674
 H        -0.371982        -1.080399        -0.871881
 H         2.947714        -1.506944         0.484901
 H         2.387433        -1.504311        -1.260510
 H         5.149650         1.076311        -1.407859
 H         5.352135        -0.100388        -0.082869
 H         5.111848        -0.615114        -1.832005
 H         0.731911         1.913132        -1.113936
 H         2.990673         2.247314         0.751270
