19
Iteration:  2404charge 0 multiplicity 1
 C        -0.076770        -0.662779        -0.062172
 C         1.323580        -0.044488        -0.113264
 C         2.494518        -0.961614        -0.350353
 C         3.384062         0.262479        -0.765633
 C         4.863014         0.125066        -1.233937
 O         2.610987         0.906467        -1.836604
 C         1.695320         1.298479        -0.860348
 C         2.721224         1.389936         0.247015
 O         1.847825         0.676816         1.214328
 H        -0.282980        -1.497163         0.733753
 H        -0.873626         0.055978         0.170479
 H        -0.188253        -1.163430        -1.057870
 H         3.084543        -1.320048         0.639992
 H         2.547204        -1.731362        -1.067612
 H         5.389842         0.982452        -1.695836
 H         5.531226        -0.228316        -0.391803
 H         4.796216        -0.580184        -1.999177
 H         0.893422         1.809786        -1.273878
 H         3.241954         2.295950         0.661783
