19
Iteration:  2687charge 0 multiplicity 1
 C        -0.090749        -0.660603         0.275116
 C         1.259822        -0.024150        -0.110285
 C         2.527611        -0.921072        -0.446167
 C         3.415439         0.326880        -0.791769
 C         4.910655         0.071755        -0.976172
 O         2.650244         0.896793        -1.983270
 C         1.736073         1.313647        -1.003990
 C         2.679590         1.355904         0.106633
 O         1.769371         0.640957         1.088439
 H         0.271578        -1.554701         0.834352
 H        -0.682350        -0.128925         0.947707
 H        -0.628610        -1.092836        -0.560317
 H         2.916246        -1.318533         0.596917
 H         2.322724        -1.566089        -1.288885
 H         5.432380         0.942099        -1.543197
 H         5.437501        -0.032474         0.043852
 H         5.177664        -0.766399        -1.627099
 H         0.926551         1.966936        -1.307814
 H         3.188944         2.238599         0.662120
