19
Iteration:  3397charge 0 multiplicity 1
 C         0.017707        -0.650321        -0.078789
 C         1.346096        -0.100735         0.034399
 C         2.509830        -0.930524        -0.411983
 C         3.380609         0.286697        -0.762509
 C         4.910333         0.135172        -1.235919
 O         2.617151         0.836205        -1.863635
 C         1.644599         1.210128        -0.868248
 C         2.641146         1.412766         0.276852
 O         1.819249         0.740873         1.207727
 H        -0.188107        -1.514103         0.526081
 H        -0.763183         0.142295         0.172581
 H        -0.115477        -1.016458        -1.171074
 H         2.932474        -1.550506         0.341734
 H         2.231510        -1.498142        -1.339049
 H         5.452402         1.114193        -1.022942
 H         5.351036        -0.540185        -0.577611
 H         5.006180        -0.152748        -2.286655
 H         0.845828         1.985436        -1.181447
 H         3.202002         2.275440         0.689902
