19
Iteration:  3770
 C        -0.028243        -0.618471         0.033256
 C         1.329170        -0.037402        -0.058782
 C         2.544339        -0.962563        -0.461348
 C         3.498000         0.237606        -0.721680
 C         4.885457         0.130194        -1.153056
 O         2.624487         0.853920        -1.849321
 C         1.645490         1.267315        -0.943437
 C         2.623081         1.468149         0.244529
 O         1.786121         0.619255         1.168853
 H        -0.007168        -1.381479         0.829177
 H        -0.734170         0.159808         0.319118
 H        -0.131627        -1.074727        -0.906473
 H         2.883302        -1.633924         0.375220
 H         2.462383        -1.405723        -1.477283
 H         5.242834         1.241575        -1.168726
 H         5.349274        -0.675330        -0.607719
 H         4.809719        -0.077211        -2.280557
 H         0.829560         1.967836        -1.145462
 H         3.100218         2.324128         0.774733
