19
Iteration:  3045
 C        -0.075008        -0.518660         0.079803
 C         1.319269        -0.066028        -0.017794
 C         2.547651        -0.928491        -0.386286
 C         3.378669         0.317543        -0.768526
 C         4.901697         0.203116        -1.033174
 O         2.603969         0.787993        -1.953714
 C         1.644806         1.166858        -0.958292
 C         2.706554         1.335966         0.183261
 O         1.875988         0.620630         1.132493
 H        -0.344860        -1.533983         0.473071
 H        -0.662113         0.225663         0.506809
 H        -0.436661        -0.546586        -0.956483
 H         2.847007        -1.548628         0.466262
 H         2.335327        -1.575578        -1.181145
 H         5.073385         1.037292        -1.785829
 H         5.485691         0.502748        -0.081913
 H         5.249539        -0.674995        -1.599585
 H         0.967539         1.891073        -1.314498
 H         3.066333         2.389063         0.518802
