19
Iteration:  2533
 C        -0.042052        -0.670230         0.070496
 C         1.347186        -0.001882        -0.057047
 C         2.543167        -0.905092        -0.424791
 C         3.319903         0.316630        -0.841452
 C         4.789585         0.046663        -1.064083
 O         2.644873         0.925114        -1.982506
 C         1.677274         1.300255        -0.883322
 C         2.725262         1.378244         0.203245
 O         1.856429         0.642431         1.173023
 H         0.010891        -1.160990         1.056262
 H        -0.964870        -0.167420        -0.091689
 H        -0.139429        -1.532051        -0.546710
 H         2.890698        -1.457515         0.488232
 H         2.518876        -1.510231        -1.260874
 H         5.205552         1.036474        -1.299628
 H         5.159028        -0.282703        -0.015843
 H         5.105067        -0.745780        -1.702125
 H         0.891057         1.808888        -1.321250
 H         3.319944         2.199519         0.696104
