19
Iteration:  1715
 C        -0.121687        -0.652449        -0.010366
 C         1.315236        -0.031114         0.021390
 C         2.550690        -0.880266        -0.324384
 C         3.445828         0.228710        -0.657497
 C         4.881590         0.241803        -1.180165
 O         2.568876         0.857050        -1.998240
 C         1.768687         1.167424        -0.968725
 C         2.693921         1.335206         0.265523
 O         1.836431         0.676263         1.184751
 H        -0.364671        -1.549905         0.643922
 H        -0.871510         0.161109         0.118761
 H        -0.323661        -1.086073        -0.948052
 H         2.803888        -1.419116         0.535058
 H         2.413033        -1.539080        -1.215079
 H         4.924169         1.152083        -1.806382
 H         5.588126         0.336819        -0.350895
 H         5.174394        -0.694340        -1.832792
 H         0.925440         1.813028        -1.466770
 H         3.178694         2.215702         0.687519
