19
Iteration:  2124
 C        -0.134613        -0.608776         0.267955
 C         1.358710        -0.149756        -0.041454
 C         2.417607        -0.948175        -0.656975
 C         3.369822         0.260049        -0.877560
 C         4.830708         0.205376        -0.903686
 O         2.683108         0.958201        -1.921885
 C         1.678174         1.304299        -0.988241
 C         2.691939         1.359976         0.172375
 O         1.940524         0.547955         1.156007
 H        -0.210932        -1.528159         0.838130
 H        -0.703840         0.105319         0.820987
 H        -0.565297        -0.825520        -0.804809
 H         2.928363        -1.648868         0.105676
 H         2.317957        -1.438151        -1.657141
 H         5.137080         1.279697        -1.171340
 H         5.287321         0.153867         0.056535
 H         5.293996        -0.436681        -1.590380
 H         0.929657         1.846084        -1.497674
 H         3.404036         2.150712         0.575344
