19
Iteration:   610
 C        -0.076237        -0.648096         0.174719
 C         1.280847        -0.060806        -0.093548
 C         2.473876        -0.914510        -0.503724
 C         3.353514         0.247467        -0.921844
 C         4.851960         0.306400        -0.915113
 O         2.711785         0.916984        -2.034991
 C         1.691819         1.226299        -0.896750
 C         2.667210         1.269876         0.196348
 O         1.875657         0.587527         1.162030
 H         0.074036        -1.633413         0.670755
 H        -0.622706         0.203187         0.834858
 H        -0.676754        -0.861217        -0.650199
 H         2.859601        -1.733670         0.259778
 H         2.306809        -1.230835        -1.467104
 H         5.278300         1.232372        -1.285534
 H         5.092237         0.282004         0.224333
 H         5.359858        -0.581234        -1.283653
 H         0.985417         1.951863        -1.302924
 H         3.370887         2.011987         0.568385
