19
Iteration:  4795
 C        -0.040840        -0.784566         0.158030
 C         1.273495        -0.002092        -0.093081
 C         2.469349        -0.890765        -0.396570
 C         3.399530         0.346739        -0.826518
 C         4.842728         0.062301        -0.995805
 O         2.723473         0.995219        -1.932938
 C         1.691127         1.291700        -0.950633
 C         2.654508         1.393726         0.115722
 O         1.858112         0.584880         1.116833
 H         0.005684        -1.212921         1.226708
 H        -0.916077        -0.226058         0.046021
 H        -0.329207        -1.680703        -0.330348
 H         2.679870        -1.695388         0.370396
 H         2.167130        -1.321704        -1.347117
 H         5.393700         0.954807        -0.718845
 H         5.387138        -0.815102        -0.517579
 H         5.222946        -0.025332        -2.067036
 H         1.009836         2.105949        -1.160723
 H         2.940670         2.471925         0.509620
