19
Iteration:  3336
 C        -0.088664        -0.551746         0.278441
 C         1.315975        -0.083206        -0.072222
 C         2.457185        -0.980306        -0.687855
 C         3.455405         0.272793        -0.775582
 C         4.896100         0.266978        -0.862852
 O         2.686384         0.910861        -2.020589
 C         1.657511         1.180280        -1.010064
 C         2.596466         1.337710         0.168372
 O         1.852735         0.611938         1.161603
 H         0.192080        -1.276236         1.130522
 H        -0.759532         0.136086         0.824893
 H        -0.671759        -1.032213        -0.488576
 H         3.020271        -1.721980         0.017551
 H         2.395069        -1.625846        -1.579048
 H         5.263725         1.216676        -0.562200
 H         5.555081        -0.564142        -0.305442
 H         5.155594        -0.026933        -1.955111
 H         0.878084         1.867026        -1.181365
 H         3.206194         2.189209         0.467690
