19
Iteration:   291charge 0 multiplicity 1
 C        -0.124634        -0.713629         0.292759
 C         1.229106        -0.103386        -0.083640
 C         2.517346        -0.897758        -0.525669
 C         3.448826         0.309760        -0.833271
 C         4.993459         0.260687        -0.848915
 O         2.695276         0.896351        -2.012105
 C         1.551693         1.210912        -0.981575
 C         2.689851         1.366722         0.071587
 O         1.863338         0.622677         1.112564
 H         0.082648        -1.505919         1.002571
 H        -0.661814         0.036914         0.723213
 H        -0.653030        -1.127039        -0.614479
 H         2.630680        -1.608007         0.179022
 H         2.247201        -1.315744        -1.542563
 H         5.507870         1.080907        -0.327481
 H         5.179507        -0.642811        -0.457635
 H         5.458242         0.301478        -1.874522
 H         0.702800         1.898319        -1.185065
 H         3.244529         2.212956         0.477585
