19
Iteration:   972
 C        -0.072511        -0.601071         0.250644
 C         1.298902        -0.127213        -0.025432
 C         2.566406        -0.922808        -0.530019
 C         3.381522         0.310074        -0.861853
 C         4.854111         0.167355        -0.880493
 O         2.640501         0.924638        -1.965034
 C         1.654244         1.257768        -0.997387
 C         2.675743         1.339134         0.105124
 O         1.872736         0.578812         1.096670
 H        -0.049333        -1.575906         0.697536
 H        -0.717830         0.054705         0.916725
 H        -0.766944        -0.771759        -0.634983
 H         2.955321        -1.481639         0.311110
 H         2.320529        -1.509188        -1.543886
 H         5.306406         1.171682        -1.381597
 H         5.086081         0.282295         0.106050
 H         5.426378        -0.753661        -1.238084
 H         1.040045         2.009269        -1.516618
 H         3.229441         2.272517         0.535246
