19
Iteration:  2513
 C        -0.048929        -0.705650         0.196767
 C         1.319936        -0.050504        -0.046424
 C         2.412701        -0.914950        -0.572254
 C         3.411530         0.295382        -0.769227
 C         4.953285         0.083708        -0.927081
 O         2.607570         0.974779        -1.932322
 C         1.631516         1.250580        -0.968656
 C         2.666887         1.353117         0.103520
 O         1.908262         0.671923         1.108215
 H        -0.003014        -1.415540         1.158263
 H        -0.800383         0.076632         0.226007
 H        -0.424130        -1.436464        -0.616041
 H         2.739103        -1.565992         0.328444
 H         2.078865        -1.400399        -1.419646
 H         5.417010         1.091299        -1.185987
 H         5.491629        -0.309091         0.005964
 H         5.064484        -0.688291        -1.639967
 H         1.066154         2.134892        -1.130384
 H         3.296131         2.266699         0.345903
