19
Iteration:  2641charge 0 multiplicity 1
 C        -0.068689        -0.651247         0.247565
 C         1.326942        -0.069046         0.033138
 C         2.469591        -0.992465        -0.543093
 C         3.374763         0.258040        -0.828908
 C         4.845925         0.167660        -0.791432
 O         2.644825         0.919460        -2.066909
 C         1.611152         1.247420        -1.023860
 C         2.678654         1.392420         0.071058
 O         1.950581         0.681672         1.121715
 H        -0.071356        -1.680429         0.604367
 H        -0.536223        -0.047780         1.038219
 H        -0.573262        -0.562952        -0.675579
 H         2.947677        -1.749570         0.198046
 H         2.194859        -1.357004        -1.572312
 H         5.528714         1.014166        -0.988367
 H         5.101390        -0.365601         0.220304
 H         5.148069        -0.526868        -1.545049
 H         0.874985         1.949635        -1.397864
 H         3.341844         2.313747         0.351395
