19
Iteration:  4442
 C        -0.150892        -0.655288         0.132015
 C         1.336746        -0.159166         0.002857
 C         2.537428        -1.001360        -0.458300
 C         3.459067         0.315818        -0.824439
 C         4.980503         0.229445        -1.066168
 O         2.684843         0.871857        -1.974546
 C         1.634288         1.260618        -0.861949
 C         2.622636         1.354116         0.195487
 O         1.817287         0.677786         1.137414
 H        -0.291226        -1.294864         0.970206
 H        -0.763008         0.343622         0.427874
 H        -0.661356        -1.021079        -0.833098
 H         3.031265        -1.779165         0.157684
 H         2.310447        -1.490425        -1.433059
 H         5.233920         1.086128        -1.814484
 H         5.324396         0.401506        -0.075107
 H         5.189918        -0.731460        -1.537595
 H         0.816906         2.051669        -1.062237
 H         3.083978         2.341185         0.253479
