19
Iteration:  2480
 C        -0.018212        -0.553470         0.328170
 C         1.338984        -0.059732        -0.122302
 C         2.476122        -0.954820        -0.607922
 C         3.340460         0.312231        -0.803445
 C         4.838239         0.222515        -0.866954
 O         2.667181         0.932599        -2.007304
 C         1.708309         1.212711        -1.034972
 C         2.652193         1.264899         0.157554
 O         1.862476         0.582970         1.088711
 H         0.069668        -1.588319         0.961947
 H        -0.511273         0.101460         1.087625
 H        -0.774313        -0.739484        -0.502307
 H         2.744400        -1.621937         0.310026
 H         2.219758        -1.568844        -1.396224
 H         5.356085         1.194268        -1.046098
 H         5.123352        -0.225332         0.155641
 H         5.180297        -0.401319        -1.662148
 H         1.147775         2.022184        -1.356434
 H         3.279712         2.081909         0.621367
