19
Iteration:  2531charge 0 multiplicity 1
 C        -0.034152        -0.676341         0.089844
 C         1.330789         0.000185        -0.064451
 C         2.532255        -0.908894        -0.418782
 C         3.327105         0.306748        -0.826470
 C         4.801777         0.057240        -1.045899
 O         2.641704         0.941149        -1.990798
 C         1.677022         1.297290        -0.881062
 C         2.724198         1.364181         0.194254
 O         1.868059         0.652583         1.166563
 H        -0.007462        -1.127037         1.016495
 H        -0.991939        -0.170402        -0.053800
 H        -0.093025        -1.481430        -0.576613
 H         2.849353        -1.509693         0.402175
 H         2.538113        -1.559190        -1.338344
 H         5.241528         0.985493        -1.328590
 H         5.120982        -0.294645        -0.030913
 H         5.147375        -0.755606        -1.726054
 H         0.821968         1.788568        -1.335857
 H         3.251469         2.184565         0.679204
