19
Iteration:   829charge 0 multiplicity 1
 C        -0.080047        -0.684335         0.143448
 C         1.258802        -0.067044        -0.073895
 C         2.539307        -0.931142        -0.453863
 C         3.446471         0.287549        -0.881464
 C         4.912343         0.167568        -0.998212
 O         2.627326         0.900543        -1.965694
 C         1.713043         1.319932        -0.984436
 C         2.632531         1.361117         0.231332
 O         1.839855         0.614009         1.170554
 H         0.058465        -1.451388         0.873339
 H        -0.796262         0.124014         0.491383
 H        -0.463090        -1.096402        -0.750855
 H         2.877128        -1.452723         0.456416
 H         2.250320        -1.576691        -1.289250
 H         5.363131         1.176434        -1.190924
 H         5.111031        -0.246929        -0.023848
 H         5.168581        -0.526076        -1.814455
 H         0.937710         2.004629        -1.343654
 H         3.291146         2.204904         0.606602
