19
Iteration:  3865
 C        -0.058246        -0.695027         0.169521
 C         1.289681        -0.132707        -0.064666
 C         2.442571        -0.946032        -0.520111
 C         3.398684         0.313204        -0.803033
 C         4.953932         0.118542        -0.961003
 O         2.651988         1.036574        -1.959170
 C         1.646487         1.261868        -0.972712
 C         2.639049         1.349184         0.195373
 O         1.887400         0.622348         1.152215
 H        -0.143303        -1.512733         0.934891
 H        -0.637122         0.273771         0.533396
 H        -0.448760        -1.053805        -0.856577
 H         2.712625        -1.605513         0.315026
 H         2.202113        -1.360889        -1.466689
 H         5.454326         0.976927        -1.594486
 H         5.514803         0.085413         0.044012
 H         5.327577        -0.919650        -1.419970
 H         0.710980         1.863062        -1.317038
 H         3.272992         2.321414         0.309311
