19
Iteration:  4990charge 0 multiplicity 1
 C        -0.045413        -0.671946         0.164090
 C         1.305302        -0.077010        -0.047580
 C         2.447610        -0.893446        -0.543765
 C         3.348562         0.301956        -0.771577
 C         4.800019         0.205203        -1.002475
 O         2.737560         0.934645        -1.959496
 C         1.745966         1.198699        -0.962191
 C         2.711472         1.395244         0.235382
 O         1.857468         0.562073         1.094860
 H        -0.327807        -1.086987         1.212287
 H        -0.852398         0.087730         0.123860
 H        -0.447413        -1.403015        -0.532904
 H         2.884927        -1.536340         0.261568
 H         2.280990        -1.461913        -1.454120
 H         5.250350         1.221795        -1.043990
 H         5.272532        -0.411886        -0.207889
 H         4.846089        -0.290518        -1.989295
 H         0.936183         1.973385        -1.026302
 H         3.223380         2.290359         0.714449
