19
Iteration:   125
 C        -0.028204        -0.698979         0.251136
 C         1.307738        -0.085291        -0.101355
 C         2.497543        -0.946979        -0.610466
 C         3.406338         0.308180        -0.765405
 C         4.857515         0.278017        -0.900369
 O         2.673112         0.914329        -1.919973
 C         1.601556         1.299093        -1.018007
 C         2.738181         1.338249         0.158430
 O         1.832913         0.578915         1.099642
 H        -0.031235        -1.576674         0.875544
 H        -0.693675         0.040593         0.724068
 H        -0.575077        -1.040012        -0.607823
 H         2.691472        -1.575317         0.229593
 H         2.476870        -1.391680        -1.608774
 H         5.093392        -0.168892        -1.845749
 H         5.444931         1.165543        -0.639037
 H         5.141631        -0.521214        -0.218456
 H         0.907214         1.933203        -1.632615
 H         3.223941         2.171947         0.767816
