19
Iteration:   152
 C        -0.081947        -0.632908         0.145792
 C         1.313260        -0.079073        -0.042433
 C         2.519945        -0.902484        -0.520644
 C         3.418446         0.233139        -0.849960
 C         4.927113         0.218085        -0.927835
 O         2.710765         0.966515        -1.986886
 C         1.554690         1.213170        -0.923096
 C         2.665725         1.320928         0.147358
 O         1.834670         0.600250         1.166828
 H         0.033033        -1.434649         0.927751
 H        -0.789871         0.104150         0.586576
 H        -0.643379        -1.220478        -0.675274
 H         3.005917        -1.517582         0.311806
 H         2.357804        -1.417050        -1.504382
 H         5.127061         0.424484        -2.022907
 H         5.316895         1.099451        -0.371134
 H         5.565771        -0.688744        -0.638658
 H         0.762730         1.791840        -1.357523
 H         3.073826         2.176055         0.602654
