19
Iteration:  4320charge 0 multiplicity 1
 C        -0.004229        -0.746112         0.222052
 C         1.295772        -0.041352        -0.077684
 C         2.450493        -0.862650        -0.432964
 C         3.454863         0.276121        -0.862026
 C         4.945497         0.156536        -0.975460
 O         2.667925         0.956309        -1.993725
 C         1.687659         1.200247        -0.973999
 C         2.648156         1.377528         0.112381
 O         1.773455         0.642987         1.119097
 H         0.109363        -1.696057         0.825511
 H        -0.654704        -0.082341         0.877102
 H        -0.635770        -0.951341        -0.655536
 H         2.848463        -1.293992         0.500979
 H         2.292621        -1.641797        -1.148355
 H         5.372004         1.143633        -0.844256
 H         5.152567        -0.503369        -0.088320
 H         5.189388        -0.265554        -1.964396
 H         0.960976         1.945263        -1.163462
 H         2.908349         2.272246         0.587014
