19
Iteration:   968
 C        -0.078896        -0.593036         0.249107
 C         1.276801        -0.124174        -0.013417
 C         2.571084        -0.913509        -0.547062
 C         3.394795         0.302551        -0.824424
 C         4.851341         0.177828        -0.874714
 O         2.609797         0.918106        -2.013309
 C         1.688887         1.269203        -1.021849
 C         2.668550         1.308032         0.119340
 O         1.876098         0.585876         1.106548
 H        -0.010697        -1.632178         0.704597
 H        -0.593212         0.181608         0.921132
 H        -0.693403        -0.745384        -0.603705
 H         3.091736        -1.589599         0.196542
 H         2.425597        -1.420364        -1.458379
 H         5.245148         1.010863        -1.346114
 H         5.202821         0.291282         0.224398
 H         5.378451        -0.650672        -1.280708
 H         0.994002         1.995731        -1.453541
 H         3.055130         2.205017         0.642220
