19
Iteration:  3784charge 0 multiplicity 1
 C        -0.094152        -0.617615         0.101702
 C         1.309509        -0.120518        -0.045224
 C         2.569275        -0.905529        -0.490602
 C         3.381138         0.326642        -0.712697
 C         4.889411         0.197772        -1.108458
 O         2.645608         0.866903        -1.940405
 C         1.728340         1.227888        -0.898484
 C         2.653189         1.292951         0.264330
 O         1.803932         0.688872         1.142899
 H        -0.266526        -1.448796         0.867439
 H        -0.799090         0.184105         0.361178
 H        -0.560041        -1.028813        -0.843426
 H         2.941992        -1.727333         0.160320
 H         2.295614        -1.412957        -1.507673
 H         5.503526         1.142584        -1.076707
 H         5.674856        -0.494504        -0.509005
 H         4.965142        -0.169432        -2.178062
 H         1.000337         1.894705        -1.265051
 H         3.152441         2.186145         0.522099
