19
Iteration:  3078
 C        -0.077891        -0.571103        -0.055495
 C         1.313263        -0.058837        -0.020520
 C         2.583030        -0.933181        -0.299680
 C         3.421486         0.288297        -0.794313
 C         4.899926         0.174045        -1.127580
 O         2.516288         0.814562        -1.950855
 C         1.652607         1.203641        -0.942544
 C         2.745595         1.303323         0.268445
 O         1.866572         0.702602         1.176544
 H        -0.443605        -1.347836         0.675673
 H        -0.775830         0.193521         0.059262
 H        -0.204538        -0.936363        -1.091037
 H         3.006339        -1.275451         0.668595
 H         2.517163        -1.631994        -1.085585
 H         4.970890         1.199182        -1.665230
 H         5.543953         0.036988        -0.149830
 H         5.092633        -0.743531        -1.719060
 H         0.862395         1.864016        -1.214048
 H         3.190108         2.325296         0.664368
