19
Iteration:  2306charge 0 multiplicity 1
 C        -0.076467        -0.559864         0.302439
 C         1.292019        -0.098360        -0.174242
 C         2.438812        -1.006909        -0.606443
 C         3.392641         0.237130        -0.861067
 C         4.880831         0.239246        -0.849467
 O         2.598317         0.985291        -1.950346
 C         1.721927         1.280024        -0.951638
 C         2.669232         1.295801         0.131865
 O         1.961450         0.547797         1.109746
 H        -0.123433        -1.501532         0.832768
 H        -0.607609         0.218527         0.756724
 H        -0.686490        -0.897751        -0.535364
 H         2.822660        -1.679331         0.311177
 H         2.196314        -1.592370        -1.461180
 H         5.187796         1.310863        -0.830120
 H         5.293889        -0.060377         0.175296
 H         5.265906        -0.324731        -1.656677
 H         0.967645         1.936208        -1.201614
 H         3.244595         2.249358         0.243624
