19
Iteration:  2162
 C        -0.086704        -0.553111         0.305562
 C         1.266527        -0.105714        -0.141815
 C         2.511570        -0.982008        -0.668411
 C         3.376061         0.298894        -0.841573
 C         4.898510         0.261564        -0.904204
 O         2.612846         0.932338        -1.934910
 C         1.680806         1.306568        -0.963339
 C         2.757947         1.302059         0.200548
 O         1.869365         0.485371         1.074414
 H         0.001248        -1.125116         1.262593
 H        -0.612526         0.422379         0.469882
 H        -0.671613        -1.131883        -0.316159
 H         2.866336        -1.531302         0.182898
 H         2.367709        -1.686871        -1.597891
 H         5.214723         1.277642        -0.727582
 H         5.179344        -0.305242         0.053821
 H         5.379461        -0.230980        -1.824394
 H         0.795097         1.996641        -1.172080
 H         3.251091         2.122705         0.675103
