19
Iteration:  2074
 C        -0.122348        -0.761717        -0.065280
 C         1.346126        -0.001608        -0.002466
 C         2.518867        -0.888385        -0.400275
 C         3.444629         0.314991        -0.829354
 C         4.932708         0.044343        -1.253003
 O         2.615755         0.868680        -1.865778
 C         1.640342         1.319474        -0.861637
 C         2.636910         1.439374         0.353205
 O         1.875319         0.678886         1.189811
 H        -0.146280        -1.744588         0.458574
 H        -0.939067        -0.131028         0.384091
 H        -0.318689        -0.962665        -1.081428
 H         2.967830        -1.421030         0.334758
 H         2.290077        -1.439914        -1.341669
 H         5.530061         0.874912        -1.564935
 H         5.533382        -0.234123        -0.354837
 H         4.872096        -0.835457        -2.011046
 H         0.838354         2.115590        -1.125749
 H         3.091595         2.261176         0.922436
