19
Iteration:  1130
 C        -0.067695        -0.687313         0.273515
 C         1.280506        -0.013836        -0.142543
 C         2.449249        -0.966072        -0.538430
 C         3.355651         0.279645        -0.837199
 C         4.902402         0.165855        -0.836868
 O         2.668614         0.954326        -2.029501
 C         1.613760         1.220484        -0.965874
 C         2.657112         1.359245         0.080683
 O         1.944288         0.660918         1.140405
 H         0.236977        -1.680732         0.775026
 H        -0.747266        -0.045533         0.875766
 H        -0.616254        -1.075448        -0.582216
 H         2.996159        -1.376820         0.434349
 H         2.359379        -1.808883        -1.208063
 H         5.249653         1.059985        -1.245349
 H         5.330473         0.038534         0.242158
 H         5.198377        -0.553283        -1.588721
 H         0.914648         2.029215        -1.300125
 H         3.321071         2.114027         0.503056
