19
Iteration:  1157charge 0 multiplicity 1
 C        -0.049629        -0.690720         0.204147
 C         1.359896        -0.092865        -0.053550
 C         2.534095        -0.913281        -0.530623
 C         3.403747         0.369524        -0.840529
 C         4.869963         0.109419        -0.898180
 O         2.599611         0.832428        -1.977026
 C         1.643391         1.241351        -0.957662
 C         2.692224         1.456003         0.138600
 O         1.824792         0.661041         1.126359
 H         0.006492        -1.611099         0.725994
 H        -0.572783         0.057408         0.812862
 H        -0.665431        -0.749771        -0.743954
 H         2.994327        -1.601277         0.074127
 H         2.303790        -1.399727        -1.512837
 H         5.352264         0.974423        -1.558134
 H         5.306893         0.193110         0.162200
 H         5.146291        -0.890698        -1.381051
 H         0.964403         1.985051        -1.345635
 H         3.268715         2.229728         0.717709
