19
Iteration:  4682
 C        -0.054814        -0.641896         0.163968
 C         1.309112        -0.024664        -0.171100
 C         2.511739        -0.914477        -0.467496
 C         3.398163         0.327337        -0.780418
 C         4.956856         0.170715        -1.023745
 O         2.591652         0.846517        -1.988068
 C         1.682492         1.276736        -0.955362
 C         2.609962         1.346818         0.234981
 O         1.856392         0.574607         1.156573
 H         0.116156        -1.638336         0.478866
 H        -0.554756        -0.052641         1.004225
 H        -0.659753        -0.528840        -0.767457
 H         2.677452        -1.523324         0.408728
 H         2.481721        -1.507350        -1.401797
 H         5.379683         0.935871        -1.768919
 H         5.318976         0.490802        -0.026071
 H         5.328344        -0.879783        -1.162554
 H         1.024365         2.128429        -1.078053
 H         3.096253         2.182155         0.691348
