19
Iteration:  4884
 C        -0.139649        -0.549256         0.086400
 C         1.341221        -0.099409        -0.072451
 C         2.600999        -0.985105        -0.514552
 C         3.411568         0.333348        -0.827139
 C         4.882333         0.295805        -1.002918
 O         2.597292         0.786110        -1.948818
 C         1.727017         1.278778        -0.902873
 C         2.693523         1.257803         0.234952
 O         1.807548         0.593402         1.170851
 H        -0.338594        -1.576991         0.390138
 H        -0.587861         0.280875         0.669158
 H        -0.536676        -0.463535        -0.915175
 H         2.860368        -1.497034         0.453588
 H         2.587605        -1.751474        -1.313830
 H         5.102625         1.222688        -1.628985
 H         5.435298         0.247720        -0.040172
 H         5.000312        -0.542463        -1.685592
 H         0.985331         2.167054        -1.019211
 H         3.152480         2.283202         0.611682
