19
Iteration:    91charge 0 multiplicity 1
 C        -0.005855        -0.728085         0.073736
 C         1.322887        -0.078990        -0.043471
 C         2.492497        -0.989919        -0.512648
 C         3.389793         0.325674        -0.857615
 C         4.920629         0.176000        -0.987287
 O         2.633621         0.999060        -1.908170
 C         1.619849         1.294380        -0.937072
 C         2.669583         1.348942         0.219154
 O         1.832030         0.606040         1.148363
 H        -0.077248        -1.512691         0.803249
 H        -0.653369         0.114145         0.519535
 H        -0.461926        -0.959531        -0.798674
 H         2.785097        -1.616393         0.349077
 H         2.469106        -1.660201        -1.305705
 H         5.241661        -0.737276        -1.378927
 H         5.459212         1.008402        -1.577070
 H         5.256746         0.238502        -0.003100
 H         0.764716         1.795036        -1.411642
 H         3.194121         2.311330         0.592157
