19
Iteration:  3852
 C        -0.061211        -0.614503         0.191025
 C         1.322695        -0.043803        -0.009669
 C         2.489234        -0.911083        -0.650328
 C         3.420466         0.263099        -0.875273
 C         4.955421         0.136748        -0.902215
 O         2.639235         0.942810        -1.942146
 C         1.598509         1.197787        -0.931195
 C         2.628468         1.356470         0.149747
 O         1.896399         0.616381         1.148423
 H        -0.010751        -1.486443         0.895613
 H        -0.858474         0.127575         0.588374
 H        -0.522840        -1.002163        -0.823028
 H         2.934270        -1.694877        -0.008346
 H         2.223342        -1.482739        -1.579612
 H         5.370519         1.040171        -1.395224
 H         5.208742         0.298092         0.243386
 H         5.292736        -0.858995        -1.364534
 H         0.895863         2.081378        -1.177573
 H         2.998817         2.250569         0.742096
