19
Iteration:   851
 C        -0.042720        -0.660213         0.055319
 C         1.299738        -0.101120        -0.037071
 C         2.543332        -0.925993        -0.418504
 C         3.476115         0.339939        -0.733708
 C         4.859570         0.072785        -1.087557
 O         2.679917         0.957317        -1.873684
 C         1.599171         1.205174        -0.894599
 C         2.659784         1.350315         0.161298
 O         1.812664         0.694207         1.080984
 H        -0.049153        -1.304698         0.901983
 H        -0.845060         0.132414         0.117278
 H        -0.253870        -1.295051        -0.762782
 H         2.821267        -1.389933         0.534975
 H         2.618529        -1.562352        -1.336926
 H         5.267501         1.118010        -1.265307
 H         5.400620        -0.541066        -0.374433
 H         4.802553        -0.346719        -2.111555
 H         0.797348         1.938515        -1.022420
 H         3.162443         2.295043         0.553216
