19
Iteration:  2889charge 0 multiplicity 1
 C        -0.142352        -0.549495         0.052588
 C         1.343463        -0.091491        -0.039806
 C         2.568897        -1.007900        -0.394567
 C         3.404326         0.221858        -0.823747
 C         4.880740         0.251087        -1.059408
 O         2.645356         0.766626        -1.909245
 C         1.689266         1.167963        -0.928918
 C         2.700307         1.411523         0.182913
 O         1.829567         0.729082         1.172827
 H        -0.239575        -1.310926         0.792957
 H        -0.771121         0.329031         0.311164
 H        -0.406521        -0.910541        -0.911212
 H         2.789977        -1.484165         0.523367
 H         2.165605        -1.671252        -1.191503
 H         4.931471         1.197769        -1.556309
 H         5.736478         0.194008        -0.365737
 H         5.256936        -0.558442        -1.850816
 H         0.998770         1.908722        -1.310984
 H         2.948710         2.361665         0.568499
