19
Iteration:   265charge 0 multiplicity 1
 C        -0.009857        -0.693442         0.213883
 C         1.327768        -0.155002        -0.021873
 C         2.539330        -0.906274        -0.520977
 C         3.392376         0.274653        -0.798633
 C         4.831543         0.212213        -0.921123
 O         2.664685         0.922962        -1.979927
 C         1.685527         1.249412        -0.993829
 C         2.658351         1.424042         0.095798
 O         1.806075         0.621393         1.126511
 H         0.086691        -1.585137         0.859340
 H        -0.646193         0.166932         0.680350
 H        -0.444616        -0.979749        -0.730829
 H         2.776834        -1.595151         0.361111
 H         2.418084        -1.474033        -1.449630
 H         5.314670         1.133039        -0.587211
 H         5.092089        -0.723300        -0.271151
 H         5.212868         0.095976        -1.897172
 H         0.754503         1.804359        -1.244173
 H         3.145560         2.416250         0.381010
