19
Iteration:  1814charge 0 multiplicity 1
 C        -0.022897        -0.638655         0.345293
 C         1.297582        -0.048959        -0.039918
 C         2.441193        -0.911543        -0.571000
 C         3.408439         0.301708        -0.820003
 C         4.913262         0.246077        -0.865189
 O         2.619721         0.908102        -2.039734
 C         1.705457         1.242203        -1.037274
 C         2.707992         1.290859         0.126441
 O         1.803418         0.568914         1.085686
 H         0.067582        -1.480591         1.085228
 H        -0.749682         0.196756         0.586886
 H        -0.434397        -1.117192        -0.466842
 H         2.926208        -1.531495         0.258235
 H         2.398253        -1.532220        -1.516538
 H         5.367267         1.158275        -0.689132
 H         5.169319        -0.405102        -0.014838
 H         5.174050        -0.255782        -1.868813
 H         1.090489         2.209379        -1.317602
 H         3.147626         2.179367         0.628331
