19
Iteration:  2942charge 0 multiplicity 1
 C        -0.057447        -0.624950         0.112958
 C         1.325546        -0.090626        -0.055611
 C         2.554264        -0.917747        -0.431300
 C         3.365311         0.284718        -0.759771
 C         4.892182         0.134564        -1.049115
 O         2.625493         0.815954        -1.976769
 C         1.696874         1.177676        -0.992104
 C         2.617006         1.425356         0.145910
 O         1.843872         0.761668         1.242267
 H        -0.119572        -1.017363         1.081964
 H        -0.852485         0.163836        -0.067633
 H        -0.142750        -1.409288        -0.635385
 H         2.721932        -1.645105         0.381917
 H         2.373106        -1.507863        -1.422799
 H         5.551958         0.961201        -0.917943
 H         5.431149        -0.525281        -0.376018
 H         5.027698        -0.247904        -2.142354
 H         0.951635         1.970040        -1.262976
 H         3.162960         2.186773         0.555746
