19
Iteration:  2551charge 0 multiplicity 1
 C        -0.027921        -0.676611         0.034060
 C         1.303136        -0.058571        -0.044001
 C         2.553958        -0.843194        -0.377195
 C         3.404771         0.294978        -0.782018
 C         4.882722         0.117942        -1.153741
 O         2.581653         0.855631        -1.894812
 C         1.708229         1.296168        -0.908162
 C         2.667932         1.347499         0.239399
 O         1.833785         0.655254         1.156440
 H        -0.406190        -0.959418         0.987837
 H        -0.699915         0.198346        -0.317840
 H        -0.155439        -1.416092        -0.775411
 H         2.961211        -1.329855         0.478613
 H         2.408875        -1.814431        -1.077309
 H         5.386841         0.893525        -1.675966
 H         5.353498        -0.383224        -0.330266
 H         4.832970        -0.697444        -1.976853
 H         1.005537         2.201245        -1.159807
 H         3.093459         2.232589         0.657579
