19
Iteration:  1365charge 0 multiplicity 1
 C        -0.123125        -0.560201        -0.000601
 C         1.338682        -0.020676        -0.034459
 C         2.692519        -0.855991        -0.341662
 C         3.393077         0.340623        -0.809808
 C         4.856551         0.217359        -1.081146
 O         2.607745         0.755744        -1.919100
 C         1.620556         1.149185        -0.918277
 C         2.702460         1.345324         0.145874
 O         1.812406         0.627843         1.180773
 H        -0.144764        -1.392101         0.780072
 H        -0.781582         0.212777         0.370735
 H        -0.620447        -1.010977        -0.961453
 H         3.010713        -1.380264         0.540858
 H         2.505475        -1.557688        -1.329008
 H         5.461477         0.959584        -1.807445
 H         5.349312         0.235151        -0.176733
 H         4.978650        -0.853184        -1.452222
 H         0.796806         1.910869        -1.141092
 H         3.294692         2.184310         0.563168
