19
Iteration:  1100
 C        -0.012357        -0.619135         0.245910
 C         1.311584        -0.039410        -0.009267
 C         2.490386        -0.968482        -0.513039
 C         3.390716         0.300845        -0.737288
 C         4.935126         0.212430        -0.952793
 O         2.599234         0.850505        -1.985896
 C         1.677118         1.229936        -1.004165
 C         2.633672         1.353097         0.122203
 O         1.843901         0.647557         1.073675
 H        -0.161977        -1.350720         1.041033
 H        -0.892564         0.110945         0.395835
 H        -0.167300        -1.156347        -0.684081
 H         2.920255        -1.682588         0.169882
 H         2.219583        -1.395376        -1.490812
 H         5.372873         1.241970        -1.002520
 H         5.568052        -0.392004        -0.096484
 H         5.018731        -0.263670        -1.943193
 H         0.985626         2.022472        -1.194504
 H         3.271351         2.100525         0.668399
