19
Iteration:   807charge 0 multiplicity 1
 C        -0.050027        -0.652165         0.223295
 C         1.251417        -0.027303        -0.073157
 C         2.433618        -0.949200        -0.588082
 C         3.366687         0.267910        -0.779681
 C         4.915960         0.265924        -0.863943
 O         2.654762         0.862764        -1.976286
 C         1.656591         1.231402        -0.940478
 C         2.747180         1.330006         0.139653
 O         1.889726         0.596573         1.095580
 H         0.063762        -1.567112         0.753554
 H        -0.709544         0.123668         0.735383
 H        -0.462418        -0.743424        -0.728254
 H         2.782402        -1.661138         0.182021
 H         2.110848        -1.328522        -1.538101
 H         5.218472         1.239489        -1.336015
 H         5.306560         0.115532         0.129840
 H         5.219239        -0.531078        -1.553520
 H         0.912800         1.961449        -1.258120
 H         3.332718         2.273275         0.381135
