19
Iteration:  4634
 C         0.022334        -0.744056         0.158721
 C         1.364000        -0.053670        -0.087235
 C         2.449062        -0.881047        -0.555981
 C         3.371302         0.270037        -0.827657
 C         4.925982         0.062034        -0.963811
 O         2.669314         0.957524        -1.955691
 C         1.675978         1.249957        -0.938019
 C         2.621813         1.464464         0.220445
 O         1.800934         0.652318         1.159057
 H         0.291330        -1.385047         1.068127
 H        -0.708697         0.032977         0.460486
 H        -0.331712        -1.312933        -0.708102
 H         2.845639        -1.529228         0.271325
 H         2.123010        -1.462794        -1.416816
 H         5.333908         0.992656        -1.335684
 H         5.435068        -0.372188        -0.071174
 H         5.016274        -0.683804        -1.764354
 H         0.816943         1.893256        -1.346665
 H         2.832128         2.498215         0.600660
