19
Iteration:  3589
 C         0.015202        -0.689729        -0.024245
 C         1.322091        -0.085139         0.012575
 C         2.556093        -0.861104        -0.366013
 C         3.428830         0.287515        -0.845192
 C         4.811063         0.086918        -1.168669
 O         2.612104         0.937092        -1.913551
 C         1.734143         1.339218        -0.885588
 C         2.698587         1.370954         0.296303
 O         1.704017         0.626297         1.166045
 H        -0.174078        -1.558969         0.722468
 H        -0.763370        -0.006118         0.308105
 H        -0.069832        -1.180696        -1.061120
 H         3.006463        -1.307903         0.524838
 H         2.421447        -1.638974        -1.182656
 H         5.399326         1.038258        -1.060602
 H         5.483378        -0.701088        -0.573379
 H         4.827082        -0.355066        -2.193497
 H         0.929217         2.000875        -1.218861
 H         3.425687         2.153964         0.561238
