19
Iteration:  4932charge 0 multiplicity 1
 C        -0.046245        -0.721012         0.070540
 C         1.291533        -0.020301        -0.061732
 C         2.525156        -0.891910        -0.505652
 C         3.333680         0.337176        -0.722912
 C         4.781942         0.128646        -1.010818
 O         2.685155         0.951008        -1.926005
 C         1.632409         1.292831        -1.034480
 C         2.654655         1.289489         0.257308
 O         1.931930         0.634079         1.178356
 H         0.201181        -1.566337         0.697951
 H        -0.754562         0.005260         0.479817
 H        -0.335441        -1.111323        -0.961284
 H         3.061971        -1.541559         0.164568
 H         2.551431        -1.366336        -1.497833
 H         5.183758         0.712927        -1.788053
 H         5.275067         0.318313        -0.078745
 H         4.926891        -0.930533        -1.231293
 H         0.910958         2.068375        -1.233037
 H         3.368314         1.912817         0.597445
