19
Iteration:  1798
 C         0.001895        -0.691289         0.286104
 C         1.310059        -0.097304        -0.136206
 C         2.519086        -0.971790        -0.553926
 C         3.358461         0.243427        -0.816645
 C         4.861249         0.159749        -0.823129
 O         2.631520         0.978162        -2.004692
 C         1.627320         1.305984        -0.974793
 C         2.675552         1.311952         0.140881
 O         1.875605         0.706041         1.055463
 H         0.193297        -1.283122         1.161211
 H        -0.609738        -0.011906         0.829346
 H        -0.688035        -1.122811        -0.572774
 H         2.760708        -1.708978         0.171071
 H         2.170962        -1.510367        -1.492286
 H         5.293838         1.237172        -0.990541
 H         5.347018        -0.257704         0.092745
 H         5.328156        -0.377036        -1.607880
 H         0.752799         1.780399        -1.231886
 H         3.435265         2.019986         0.440823
