19
Iteration:  4413
 C        -0.035027        -0.555226         0.055807
 C         1.330263        -0.009245        -0.084732
 C         2.527143        -0.969368        -0.417237
 C         3.368097         0.322164        -0.726349
 C         4.842738         0.311651        -1.080944
 O         2.658064         0.759333        -1.907201
 C         1.585613         1.255634        -0.997158
 C         2.704232         1.314163         0.262174
 O         1.895544         0.563426         1.141360
 H        -0.097459        -1.070996         1.022361
 H        -0.724869         0.233403         0.078593
 H        -0.166560        -1.335568        -0.684319
 H         2.773201        -1.447956         0.544134
 H         2.479608        -1.689123        -1.282513
 H         5.096749         1.313651        -1.482101
 H         5.406667        -0.032648        -0.204668
 H         4.848677        -0.382738        -1.923648
 H         0.706077         1.810115        -1.418690
 H         3.288530         2.230635         0.559123
