19
Iteration:  4021charge 0 multiplicity 1
 C        -0.025733        -0.732552         0.246560
 C         1.265666        -0.030592        -0.162721
 C         2.483346        -0.880948        -0.541515
 C         3.386443         0.282334        -0.797742
 C         4.922315         0.158314        -0.906678
 O         2.663965         0.898083        -1.904327
 C         1.609050         1.345425        -1.004331
 C         2.686812         1.356420         0.140139
 O         1.874126         0.614411         1.088803
 H         0.251061        -1.521765         1.058009
 H        -0.720767         0.003412         0.668984
 H        -0.387966        -1.168247        -0.712323
 H         2.631251        -1.580432         0.253706
 H         2.317056        -1.539947        -1.391297
 H         5.352754         1.015283        -1.552404
 H         5.296862        -0.009889         0.117763
 H         5.110344        -0.767761        -1.522741
 H         0.778995         2.021278        -1.161591
 H         3.169650         2.207175         0.689800
