19
Iteration:  1132
 C        -0.052210        -0.689828         0.278764
 C         1.278703        -0.021411        -0.135493
 C         2.449747        -0.956873        -0.520601
 C         3.369437         0.265913        -0.822743
 C         4.897545         0.170745        -0.844364
 O         2.657061         0.960639        -2.034512
 C         1.611864         1.237574        -0.969335
 C         2.644076         1.342390         0.088045
 O         1.940926         0.656367         1.121359
 H         0.246857        -1.641271         0.744212
 H        -0.761151        -0.021396         0.889275
 H        -0.582769        -1.001139        -0.626521
 H         2.951833        -1.368669         0.372477
 H         2.374790        -1.791412        -1.234681
 H         5.332023         1.081731        -1.270175
 H         5.353891         0.020312         0.285287
 H         5.219183        -0.632132        -1.539814
 H         0.916378         1.981069        -1.269889
 H         3.331496         2.159175         0.449153
