19
Iteration:  4804
 C         0.002494        -0.747819         0.154435
 C         1.306982        -0.056103        -0.113838
 C         2.470114        -0.918431        -0.458130
 C         3.406996         0.308136        -0.799895
 C         4.865994         0.106844        -0.968367
 O         2.683921         0.982176        -1.964378
 C         1.636859         1.320460        -0.962419
 C         2.649637         1.425098         0.142010
 O         1.818880         0.582233         1.148408
 H         0.208816        -0.944029         1.234423
 H        -0.845537        -0.146488         0.208357
 H        -0.127685        -1.627827        -0.484096
 H         2.628172        -1.510887         0.454488
 H         2.289928        -1.570458        -1.314200
 H         5.510343         0.879396        -0.594184
 H         5.122696        -0.887903        -0.468128
 H         5.021346        -0.046742        -2.109668
 H         1.113573         2.177919        -1.121984
 H         3.304576         2.229604         0.410673
