19
Iteration:  4311
 C        -0.047439        -0.712237         0.197916
 C         1.271752        -0.037288        -0.034661
 C         2.501792        -0.902845        -0.528712
 C         3.474911         0.217272        -0.857645
 C         4.997983         0.166157        -0.972656
 O         2.608526         0.918445        -2.022525
 C         1.675901         1.174130        -0.945762
 C         2.593659         1.410040         0.240183
 O         1.780636         0.706783         1.119030
 H         0.136955        -1.636535         0.643567
 H        -0.615610         0.025524         0.878588
 H        -0.495664        -0.960946        -0.774349
 H         2.923792        -1.378614         0.424455
 H         2.292893        -1.689251        -1.302337
 H         5.289139         1.288444        -1.014897
 H         5.483621        -0.292168        -0.087460
 H         5.363922        -0.432221        -1.846629
 H         0.847734         1.890588        -1.242608
 H         3.260366         2.237529         0.677061
