19
Iteration:  4637
 C         0.048544        -0.755064         0.164928
 C         1.332336        -0.058874        -0.081131
 C         2.449553        -0.910622        -0.542844
 C         3.385137         0.276208        -0.838976
 C         4.920965         0.059529        -0.964436
 O         2.687876         0.987546        -1.965975
 C         1.685981         1.239204        -0.934487
 C         2.595106         1.456657         0.213400
 O         1.812841         0.662550         1.167679
 H         0.191110        -1.355824         1.014153
 H        -0.714930         0.044578         0.535756
 H        -0.367319        -1.252796        -0.746612
 H         2.748223        -1.604931         0.253433
 H         2.106357        -1.498749        -1.409607
 H         5.347431         1.052735        -1.395597
 H         5.397999        -0.300035        -0.035019
 H         4.948055        -0.740517        -1.729872
 H         0.863648         1.927486        -1.345990
 H         2.802767         2.483267         0.524480
