19
Iteration:  1566
 C         0.010256        -0.589418         0.033192
 C         1.380834        -0.106547         0.003902
 C         2.561763        -0.906169        -0.361819
 C         3.363126         0.365524        -0.738558
 C         4.888129         0.188827        -1.087901
 O         2.541243         0.811228        -1.937092
 C         1.710085         1.214756        -0.972994
 C         2.639828         1.338164         0.158592
 O         1.827846         0.633624         1.158830
 H        -0.455673        -1.202086         0.786684
 H        -0.723371         0.298272         0.088475
 H        -0.187479        -1.077745        -0.908853
 H         2.996436        -1.365343         0.676338
 H         2.514605        -1.584244        -1.158982
 H         5.110498         0.965684        -1.745627
 H         5.628536         0.120080        -0.216192
 H         4.987937        -0.704154        -1.682753
 H         0.916346         1.906291        -1.290450
 H         2.999542         2.295806         0.584461
