19
Iteration:  2605charge 0 multiplicity 1
 C        -0.068526        -0.538120         0.158507
 C         1.309755        -0.036442        -0.055049
 C         2.537379        -0.984671        -0.376368
 C         3.389210         0.254768        -0.730436
 C         4.913016         0.244129        -1.031206
 O         2.582937         0.822966        -1.995355
 C         1.681077         1.247666        -0.982559
 C         2.733865         1.373484         0.151747
 O         1.825454         0.596305         1.110870
 H        -0.047867        -1.421399         0.796122
 H        -0.848879         0.275849         0.483079
 H        -0.573495        -0.860372        -0.823445
 H         2.887232        -1.611968         0.415286
 H         2.396184        -1.699203        -1.302397
 H         5.246863         1.253430        -1.136553
 H         5.434288        -0.290955        -0.266576
 H         5.088793        -0.396819        -1.953514
 H         0.956564         2.094575        -1.297691
 H         3.317885         2.052015         0.710650
