19
Iteration:  4768charge 0 multiplicity 1
 C        -0.018801        -0.670944         0.115113
 C         1.338992        -0.054591        -0.069114
 C         2.583406        -0.965135        -0.544317
 C         3.389694         0.330444        -0.790459
 C         4.882224         0.138744        -1.012588
 O         2.641071         0.898675        -1.921740
 C         1.679157         1.276748        -0.956054
 C         2.639735         1.374232         0.185262
 O         1.764339         0.675946         1.215993
 H        -0.051160        -1.225956         1.021968
 H        -0.830063         0.169406         0.102527
 H        -0.399864        -1.574445        -0.477836
 H         2.822794        -1.697721         0.212269
 H         2.270564        -1.511509        -1.467427
 H         5.558667         1.048140        -1.116905
 H         5.338680        -0.602034        -0.361317
 H         4.936416        -0.282767        -2.042071
 H         0.939000         2.113972        -1.244061
 H         3.336187         2.056923         0.624817
