19
Iteration:  4402
 C        -0.076107        -0.620940         0.050140
 C         1.316508        -0.131657        -0.101718
 C         2.548635        -0.951641        -0.316990
 C         3.350413         0.279581        -0.754593
 C         4.764125         0.298885        -1.079961
 O         2.637815         0.805302        -1.935354
 C         1.720020         1.288747        -0.940567
 C         2.669693         1.373711         0.156803
 O         1.921339         0.604512         1.123237
 H        -0.126762        -1.054085         1.056306
 H        -0.796386         0.151600         0.006402
 H        -0.419297        -1.358280        -0.669346
 H         2.819424        -1.547404         0.569022
 H         2.486241        -1.594824        -1.241014
 H         5.211339         1.312324        -1.123493
 H         5.392002        -0.181126        -0.324527
 H         5.060301        -0.236078        -1.982254
 H         1.058708         2.150543        -1.085800
 H         3.191768         2.190117         0.719037
