19
Iteration:  3542charge 0 multiplicity 1
 C        -0.090383        -0.633079         0.090019
 C         1.291596        -0.056421         0.058065
 C         2.527408        -0.900388        -0.530970
 C         3.451302         0.237399        -0.799957
 C         4.881390         0.177013        -1.080494
 O         2.716924         0.935731        -1.938784
 C         1.621096         1.236414        -0.921921
 C         2.639693         1.344752         0.245745
 O         1.847168         0.600363         1.154014
 H        -0.284356        -1.460347         0.852494
 H        -0.837047         0.167219         0.416985
 H        -0.296143        -1.005463        -0.907538
 H         3.067824        -1.630885         0.159603
 H         2.310209        -1.427710        -1.449562
 H         5.244958         1.144936        -0.949899
 H         5.400918        -0.465353        -0.368762
 H         4.897052        -0.270533        -2.086267
 H         0.974770         2.005593        -1.291580
 H         2.977405         2.331821         0.550265
