19
Iteration:   177
 C        -0.102598        -0.643310         0.044028
 C         1.325285        -0.120986        -0.077101
 C         2.519135        -0.949077        -0.410341
 C         3.432805         0.379037        -0.782237
 C         4.898777         0.225602        -1.067360
 O         2.594663         0.829825        -1.917930
 C         1.702893         1.281219        -0.878543
 C         2.616480         1.376535         0.225581
 O         1.893067         0.593810         1.085927
 H        -0.191690        -1.396058         0.877650
 H        -0.941665         0.151463         0.245330
 H        -0.429977        -1.241551        -0.738635
 H         3.025380        -1.501749         0.460331
 H         2.519953        -1.438072        -1.322275
 H         5.158321         0.548658        -2.051048
 H         5.579386         0.802073        -0.272036
 H         5.175852        -0.771288        -0.980227
 H         0.980700         2.004708        -1.235554
 H         2.949310         2.308234         0.768937
