19
Iteration:  3913
 C        -0.059538        -0.655681        -0.026646
 C         1.339339        -0.038586        -0.006966
 C         2.516900        -0.966743        -0.400057
 C         3.427987         0.273605        -0.773806
 C         4.948238         0.156443        -1.165903
 O         2.591350         0.898762        -1.913524
 C         1.694750         1.219585        -0.907058
 C         2.679434         1.385327         0.252932
 O         1.759640         0.696918         1.182301
 H         0.100454        -1.408641         0.793049
 H        -0.833466         0.033414         0.250546
 H        -0.225949        -1.256418        -0.874026
 H         2.802772        -1.476005         0.524222
 H         2.153872        -1.428812        -1.349000
 H         5.517846         1.129373        -1.320488
 H         5.639064        -0.415256        -0.578864
 H         4.962796        -0.494273        -2.061041
 H         0.949280         1.919635        -1.042726
 H         3.090344         2.218606         0.782590
