19
Iteration:  2955
 C        -0.042394        -0.682539         0.166635
 C         1.329409        -0.032799         0.062884
 C         2.490740        -0.891764        -0.460036
 C         3.449924         0.358745        -0.829815
 C         4.878927         0.068851        -0.950296
 O         2.662798         0.867959        -1.964266
 C         1.572734         1.177104        -1.015735
 C         2.722239         1.408374         0.156805
 O         1.844491         0.728734         1.121360
 H        -0.259844        -1.225427         1.093862
 H        -0.840126         0.045056         0.035769
 H        -0.163419        -1.396951        -0.599791
 H         3.006401        -1.604447         0.171234
 H         2.199899        -1.304371        -1.446369
 H         5.346403         1.018089        -0.841857
 H         5.092289        -0.792199        -0.259410
 H         5.078183        -0.319893        -2.042153
 H         0.745045         1.666381        -1.484850
 H         3.205384         2.337757         0.388506
