19
Iteration:  3848
 C        -0.089735        -0.591070         0.197223
 C         1.282871        -0.047296        -0.007361
 C         2.517196        -0.908702        -0.662200
 C         3.441286         0.278889        -0.907213
 C         4.925014         0.155156        -0.874444
 O         2.629443         0.895750        -1.939020
 C         1.617319         1.219179        -0.919474
 C         2.654962         1.358594         0.183503
 O         1.892362         0.594543         1.123923
 H         0.175006        -1.435978         0.841169
 H        -0.730886         0.111170         0.584945
 H        -0.371687        -0.951742        -0.753295
 H         2.978421        -1.693833        -0.040809
 H         2.233084        -1.417941        -1.647513
 H         5.259776         1.068159        -1.271995
 H         5.161079         0.296971         0.144270
 H         5.102474        -0.775651        -1.271718
 H         0.892985         1.943145        -1.107892
 H         3.107113         2.268198         0.531155
