19
Iteration:  2653charge 0 multiplicity 1
 C        -0.022289        -0.640237         0.275907
 C         1.351413        -0.115134         0.000353
 C         2.461224        -0.863519        -0.573026
 C         3.356999         0.320680        -0.799752
 C         4.843102         0.058717        -0.799313
 O         2.626644         0.926854        -1.993344
 C         1.712186         1.231108        -1.061731
 C         2.647769         1.370403         0.056742
 O         1.932354         0.694417         1.075852
 H         0.055800        -1.706537         0.575074
 H        -0.554771        -0.124115         1.029071
 H        -0.702323        -0.676209        -0.512897
 H         2.822142        -1.811950         0.064175
 H         2.076971        -1.361470        -1.481364
 H         5.201333         1.141743        -0.993819
 H         5.273366        -0.231115         0.293277
 H         5.081170        -0.705057        -1.473758
 H         0.783938         1.619692        -1.317469
 H         3.161585         2.412607         0.389097
