19
Iteration:  1962
 C        -0.098186        -0.605156         0.336331
 C         1.247596        -0.083021        -0.111441
 C         2.515514        -0.880975        -0.605814
 C         3.393933         0.340761        -0.859837
 C         4.852515         0.191812        -0.855178
 O         2.628800         0.945909        -1.990781
 C         1.658580         1.257959        -0.999097
 C         2.712098         1.277789         0.167239
 O         1.932556         0.515810         1.088877
 H        -0.046116        -1.318820         1.129852
 H        -0.726968         0.128988         0.791936
 H        -0.587467        -0.973965        -0.629615
 H         2.967238        -1.566695         0.019288
 H         2.492749        -1.397640        -1.607521
 H         5.448419         1.184023        -1.068277
 H         5.027601        -0.042628         0.191924
 H         5.180643        -0.662626        -1.513235
 H         0.900301         1.982671        -1.208769
 H         3.319882         2.122631         0.539843
