19
Iteration:  1037
 C        -0.054571        -0.657606         0.019723
 C         1.328519        -0.066256        -0.095938
 C         2.522213        -0.911854        -0.350870
 C         3.438793         0.283683        -0.763840
 C         4.875352         0.108477        -1.121517
 O         2.616096         0.911301        -1.912567
 C         1.646675         1.181927        -0.926140
 C         2.654960         1.366918         0.216936
 O         1.835440         0.719502         1.185463
 H         0.055500        -1.304937         0.856720
 H        -0.789030         0.156767         0.149001
 H        -0.197218        -1.347631        -0.855090
 H         2.769942        -1.477123         0.505587
 H         2.393186        -1.710089        -1.172389
 H         5.322390         1.140282        -1.291568
 H         5.403384        -0.321482        -0.394530
 H         5.068433        -0.368787        -2.095697
 H         0.925405         1.984045        -1.116607
 H         3.219741         2.331262         0.403651
