19
Iteration:  3105charge 0 multiplicity 1
 C        -0.078683        -0.703238         0.073057
 C         1.310515        -0.020764        -0.075237
 C         2.484486        -0.994833        -0.424280
 C         3.417431         0.283552        -0.797584
 C         4.853820         0.149087        -1.113174
 O         2.713685         0.844925        -1.865237
 C         1.641913         1.206586        -0.973518
 C         2.673756         1.433405         0.235643
 O         1.868807         0.761060         1.200029
 H        -0.066152        -1.235413         1.021737
 H        -1.027812        -0.002009         0.116105
 H        -0.172946        -1.359331        -0.819364
 H         2.814310        -1.621651         0.413176
 H         2.270434        -1.464969        -1.463435
 H         5.160432         1.163529        -1.259403
 H         5.382168        -0.349119        -0.367135
 H         4.941769        -0.493049        -2.000887
 H         0.875061         1.940851        -1.398571
 H         3.211053         2.319382         0.401223
