19
Iteration:  1177charge 0 multiplicity 1
 C        -0.054777        -0.646676         0.119831
 C         1.297128        -0.011550        -0.065980
 C         2.547898        -0.920123        -0.457461
 C         3.404686         0.306617        -0.758745
 C         4.912285         0.132195        -1.055901
 O         2.665925         0.891044        -1.929546
 C         1.618009         1.167180        -0.967384
 C         2.601652         1.317940         0.127702
 O         1.908678         0.713908         1.207295
 H        -0.045752        -1.583276         0.622498
 H        -0.819274         0.025632         0.630817
 H        -0.469392        -0.938613        -0.873856
 H         2.648745        -1.494438         0.380913
 H         2.461023        -1.567237        -1.377383
 H         5.277297         0.997042        -1.673020
 H         5.313660         0.224711         0.028723
 H         5.103295        -0.784905        -1.602888
 H         0.846591         1.801762        -1.240484
 H         2.915626         2.331805         0.449181
