19
Iteration:  1907
 C        -0.043779        -0.725294        -0.061908
 C         1.302407        -0.027478         0.056585
 C         2.508207        -0.918124        -0.330256
 C         3.379598         0.340351        -0.732424
 C         4.792870         0.103781        -1.158313
 O         2.678364         0.892584        -1.913017
 C         1.654776         1.270799        -0.879247
 C         2.765523         1.404842         0.195064
 O         1.834842         0.634016         1.153003
 H        -0.034873        -1.668843         0.506854
 H        -0.698697         0.007436         0.390831
 H        -0.344856        -0.979563        -1.183100
 H         2.899316        -1.508479         0.431333
 H         2.385389        -1.521527        -1.266280
 H         5.032797         1.080590        -1.829421
 H         5.630488         0.013966        -0.434243
 H         4.694419        -0.735660        -1.873184
 H         0.957784         2.031040        -1.063018
 H         3.294713         2.306387         0.507252
