19
Iteration:  2460charge 0 multiplicity 1
 C        -0.142602        -0.578202         0.252767
 C         1.284494        -0.041420        -0.136931
 C         2.517864        -0.973022        -0.462412
 C         3.393207         0.199689        -0.845528
 C         4.929687         0.233550        -0.934634
 O         2.669805         0.899043        -1.947359
 C         1.615434         1.284753        -0.912512
 C         2.669723         1.344540         0.126735
 O         1.949467         0.573206         1.048419
 H        -0.300461        -1.669288         0.627558
 H        -0.721787         0.114384         0.847168
 H        -0.844807        -0.483841        -0.668068
 H         2.921251        -1.650125         0.429506
 H         2.426004        -1.579916        -1.369637
 H         5.167996         1.336860        -1.068643
 H         5.271512        -0.242558        -0.027677
 H         5.333167        -0.398326        -1.693868
 H         0.786977         1.949193        -1.167867
 H         3.186837         2.261327         0.507796
