19
Iteration:  3401charge 0 multiplicity 1
 C         0.022794        -0.658068        -0.079486
 C         1.347173        -0.097819         0.029337
 C         2.507304        -0.939613        -0.431502
 C         3.331293         0.287376        -0.757950
 C         4.912014         0.164787        -1.236797
 O         2.637130         0.847291        -1.842680
 C         1.642182         1.217587        -0.854353
 C         2.631239         1.418232         0.252509
 O         1.808640         0.739886         1.207927
 H        -0.137893        -1.536747         0.582078
 H        -0.725371         0.107511         0.129187
 H         0.066828        -0.894564        -1.117961
 H         2.999250        -1.567482         0.363524
 H         2.198124        -1.593023        -1.240044
 H         5.518882         1.029396        -1.116325
 H         5.428008        -0.660454        -0.547693
 H         4.890225        -0.309012        -2.276746
 H         0.961105         1.954057        -1.186704
 H         3.277879         2.206100         0.608233
