19
Iteration:  3303
 C        -0.085845        -0.702512         0.221175
 C         1.308868        -0.049125        -0.074976
 C         2.455255        -0.946193        -0.564896
 C         3.362383         0.297348        -0.830678
 C         4.877338         0.155271        -0.873377
 O         2.629836         0.969805        -1.990397
 C         1.697848         1.295990        -0.972998
 C         2.681070         1.371776         0.145455
 O         1.915234         0.590833         1.085003
 H         0.297193        -1.337861         1.075015
 H        -0.789369         0.065950         0.605877
 H        -0.375219        -1.372995        -0.559129
 H         2.851654        -1.478939         0.391271
 H         2.313183        -1.619557        -1.437534
 H         5.309884         1.123153        -1.101503
 H         5.162843        -0.130333         0.219759
 H         5.259078        -0.550010        -1.690227
 H         0.871752         1.922538        -1.214332
 H         3.156663         2.176746         0.679724
