19
Iteration:  2606
 C        -0.073716        -0.544987         0.156110
 C         1.310828        -0.025990        -0.061875
 C         2.535903        -0.979338        -0.380607
 C         3.388269         0.242804        -0.736617
 C         4.912962         0.247541        -1.025151
 O         2.576823         0.825935        -1.993738
 C         1.680855         1.240896        -0.975844
 C         2.737789         1.378479         0.144870
 O         1.829844         0.592624         1.109127
 H        -0.046088        -1.411539         0.784229
 H        -0.823139         0.274543         0.520402
 H        -0.597614        -0.863099        -0.781616
 H         2.911579        -1.571974         0.444809
 H         2.376994        -1.684120        -1.321199
 H         5.279144         1.239772        -1.103035
 H         5.449810        -0.294849        -0.226920
 H         5.076960        -0.399483        -1.926134
 H         0.970753         2.064658        -1.318234
 H         3.320947         2.069343         0.718503
