19
Iteration:  2945
 C        -0.053445        -0.623215         0.120807
 C         1.333046        -0.093299        -0.030628
 C         2.546255        -0.907029        -0.438215
 C         3.378087         0.305116        -0.786162
 C         4.892912         0.106633        -1.028800
 O         2.630008         0.833720        -1.977575
 C         1.659983         1.163401        -1.012307
 C         2.647485         1.432652         0.136255
 O         1.837000         0.756975         1.238881
 H        -0.192767        -1.117710         1.128730
 H        -0.852069         0.061693        -0.046957
 H        -0.123621        -1.394329        -0.604569
 H         2.716532        -1.699312         0.265321
 H         2.352280        -1.423906        -1.357903
 H         5.530146         0.987534        -0.888014
 H         5.382014        -0.573052        -0.243981
 H         4.972269        -0.187826        -2.150399
 H         0.981198         1.889558        -1.337531
 H         3.250916         2.235280         0.615745
