19
Iteration:   893
 C        -0.047294        -0.659995         0.028483
 C         1.308597        -0.008691        -0.104213
 C         2.565348        -0.912349        -0.358350
 C         3.432409         0.254283        -0.782481
 C         4.900014         0.172138        -1.142970
 O         2.600214         0.880291        -1.866807
 C         1.670841         1.229461        -0.858146
 C         2.655918         1.344650         0.214716
 O         1.803669         0.682879         1.108595
 H        -0.161364        -1.287118         0.931993
 H        -0.908310         0.103816        -0.070996
 H        -0.187354        -1.381114        -0.751284
 H         2.869988        -1.542413         0.552789
 H         2.261195        -1.583325        -1.162705
 H         5.523911         1.043428        -1.111420
 H         5.403098        -0.550250        -0.426553
 H         5.090593        -0.262014        -2.118012
 H         0.922814         1.988688        -1.104341
 H         3.233040         2.265226         0.520743
