19
Iteration:  2339charge 0 multiplicity 1
 C        -0.066748        -0.616834         0.286040
 C         1.273239        -0.044041        -0.093138
 C         2.471172        -0.888439        -0.648248
 C         3.391326         0.312258        -0.819716
 C         4.888513         0.163484        -0.885934
 O         2.646352         0.957479        -1.956147
 C         1.685933         1.249380        -0.955237
 C         2.712138         1.316836         0.163095
 O         1.888544         0.528592         1.119064
 H        -0.103365        -1.064728         1.274390
 H        -0.877705         0.028545         0.369414
 H        -0.294405        -1.237524        -0.583985
 H         2.911171        -1.723987         0.105366
 H         2.207900        -1.396932        -1.532975
 H         5.359325         1.143419        -1.068998
 H         5.090128        -0.444362         0.035706
 H         5.116491        -0.363320        -1.767464
 H         0.918141         1.881989        -1.236244
 H         3.192524         2.324035         0.323264
