19
Iteration:  2409charge 0 multiplicity 1
 C        -0.031101        -0.614751        -0.067182
 C         1.351042        -0.058287        -0.075029
 C         2.493462        -0.997654        -0.376805
 C         3.394947         0.257018        -0.760441
 C         4.859270         0.132525        -1.206573
 O         2.575304         0.891754        -1.798094
 C         1.714952         1.260180        -0.867001
 C         2.688019         1.405272         0.251935
 O         1.858718         0.695693         1.175793
 H        -0.160873        -1.391055         0.612826
 H        -0.930627        -0.036473         0.224180
 H        -0.235710        -1.010205        -1.062453
 H         2.981905        -1.337749         0.469225
 H         2.577352        -1.821695        -1.165460
 H         5.242608         1.056511        -1.700779
 H         5.376846        -0.236094        -0.349705
 H         4.880832        -0.610876        -2.107084
 H         0.871991         1.930590        -1.312707
 H         3.146510         2.286000         0.664177
