19
Iteration:  4905charge 0 multiplicity 1
 C        -0.142475        -0.616390         0.001552
 C         1.329318        -0.006420        -0.027846
 C         2.462179        -0.928367        -0.450668
 C         3.468931         0.250331        -0.793262
 C         5.014000         0.204964        -1.044747
 O         2.557662         0.905691        -1.914465
 C         1.641361         1.224388        -0.935995
 C         2.692837         1.316442         0.225979
 O         1.850966         0.594840         1.150429
 H        -0.007427        -1.597230         0.488929
 H        -0.642917         0.041229         0.723353
 H        -0.560441        -0.703171        -0.972243
 H         2.889703        -1.579070         0.352408
 H         2.381397        -1.467701        -1.402900
 H         5.274720         1.070403        -1.752513
 H         5.401628         0.529081        -0.034000
 H         5.528391        -0.705817        -1.410862
 H         0.602359         1.650947        -0.997280
 H         3.339430         2.247293         0.620218
