19
Iteration:   267
 C        -0.017936        -0.681832         0.226383
 C         1.307817        -0.166661        -0.017166
 C         2.551389        -0.921520        -0.538009
 C         3.388648         0.272688        -0.804279
 C         4.841988         0.204141        -0.904444
 O         2.654939         0.929495        -1.968196
 C         1.698912         1.248160        -1.008651
 C         2.659097         1.424134         0.098563
 O         1.813529         0.635971         1.128476
 H         0.043504        -1.568156         0.856405
 H        -0.633195         0.051016         0.683024
 H        -0.477489        -1.015856        -0.729965
 H         2.798281        -1.504247         0.253864
 H         2.420902        -1.523760        -1.485781
 H         5.306267         1.125546        -0.529862
 H         5.114901        -0.640808        -0.337761
 H         5.232517         0.102263        -1.908878
 H         0.758487         1.791294        -1.264208
 H         3.124588         2.422458         0.357522
