19
Iteration:  2729
 C        -0.062403        -0.527343        -0.047598
 C         1.284630        -0.039853         0.008915
 C         2.530130        -0.925816        -0.336873
 C         3.400037         0.265921        -0.715364
 C         4.925948         0.199644        -1.155589
 O         2.556888         0.730755        -1.929285
 C         1.673486         1.142305        -0.917491
 C         2.697612         1.406464         0.205338
 O         1.886135         0.694158         1.185152
 H        -0.428595        -1.141454         0.874519
 H        -0.918869         0.107510        -0.235441
 H        -0.132842        -1.284397        -0.796057
 H         2.950704        -1.724547         0.436305
 H         2.430310        -1.338545        -1.372330
 H         5.225433         1.244199        -1.425035
 H         5.567742        -0.039720        -0.231043
 H         4.945560        -0.465422        -1.930100
 H         1.011900         1.926764        -1.155469
 H         3.208673         2.491816         0.343507
