19
Iteration:  1757
 C        -0.053504        -0.691468         0.087836
 C         1.301108        -0.084319        -0.088029
 C         2.580476        -0.869639        -0.367197
 C         3.429952         0.319260        -0.721332
 C         4.879693         0.084015        -1.009746
 O         2.562450         0.897637        -1.996352
 C         1.615787         1.227487        -0.986982
 C         2.672390         1.402902         0.216526
 O         1.888352         0.687515         1.128525
 H        -0.026523        -1.554736         0.802387
 H        -0.719790         0.064680         0.507993
 H        -0.354377        -1.038282        -0.911979
 H         2.950543        -1.556450         0.342382
 H         2.520231        -1.314420        -1.507791
 H         5.089584         0.936021        -1.681196
 H         5.429702         0.111729        -0.116262
 H         5.142734        -0.869293        -1.560721
 H         0.723119         1.882792        -1.199906
 H         3.261776         2.156466         0.728062
