19
Iteration:   805
 C        -0.056131        -0.642173         0.228742
 C         1.245530        -0.022997        -0.085216
 C         2.441898        -0.949723        -0.609233
 C         3.398831         0.244586        -0.785151
 C         4.906556         0.273905        -0.864221
 O         2.649560         0.865953        -1.956126
 C         1.653277         1.235318        -0.945679
 C         2.736717         1.341633         0.134248
 O         1.896269         0.597282         1.107741
 H         0.053501        -1.612467         0.717894
 H        -0.690574         0.127842         0.733426
 H        -0.489581        -0.779688        -0.707476
 H         2.815017        -1.679441         0.189405
 H         2.111947        -1.346992        -1.505366
 H         5.161023         1.171450        -1.323708
 H         5.306488         0.121319         0.199407
 H         5.180278        -0.509349        -1.531051
 H         0.884716         1.925420        -1.294881
 H         3.358152         2.235669         0.302918
