19
Iteration:   996
 C        -0.022699        -0.681967         0.141548
 C         1.249151        -0.071357        -0.084238
 C         2.447648        -0.939525        -0.456319
 C         3.402706         0.285994        -0.734669
 C         4.899629         0.153136        -0.923445
 O         2.630076         0.954985        -2.022366
 C         1.662577         1.238359        -0.959731
 C         2.671169         1.314597         0.136050
 O         1.932060         0.684644         1.131118
 H         0.115967        -1.578744         0.746053
 H        -0.694383        -0.067871         0.712843
 H        -0.656222        -0.950407        -0.767354
 H         2.788802        -1.495181         0.426756
 H         2.298004        -1.540924        -1.435326
 H         5.253160         1.123446        -1.510207
 H         5.513429         0.052963        -0.019205
 H         5.150810        -0.737892        -1.572661
 H         0.863196         1.968319        -1.225215
 H         2.995949         2.240603         0.560630
