19
Iteration:  1061
 C        -0.170961        -0.628956         0.070947
 C         1.324081        -0.130806         0.059968
 C         2.585166        -0.939692        -0.333273
 C         3.407743         0.351421        -0.782842
 C         4.832664         0.174235        -1.102387
 O         2.685770         0.887824        -1.963331
 C         1.651433         1.263462        -0.990107
 C         2.683733         1.347469         0.212398
 O         1.854701         0.635560         1.113375
 H        -0.330474        -1.198507         0.984710
 H        -0.819635         0.188760        -0.070645
 H        -0.191902        -1.393658        -0.764762
 H         2.981915        -1.379959         0.612376
 H         2.538470        -1.804794        -1.074979
 H         5.387965         1.153184        -1.169535
 H         5.389886        -0.507847        -0.537974
 H         4.852429        -0.165246        -2.165381
 H         0.981057         2.090784        -1.352003
 H         3.139051         2.233606         0.614239
