19
Iteration:  4259charge 0 multiplicity 1
 C        -0.125319        -0.580910         0.008154
 C         1.265869        -0.092069        -0.035220
 C         2.579152        -1.007717        -0.319026
 C         3.457005         0.277766        -0.832697
 C         4.895232         0.258880        -1.091958
 O         2.588091         0.893894        -1.920530
 C         1.606266         1.254848        -1.010638
 C         2.619912         1.331963         0.191702
 O         1.931988         0.592544         1.221281
 H        -0.116479        -1.312506         0.779525
 H        -0.729163         0.328314         0.197302
 H        -0.304413        -1.053310        -0.972248
 H         2.961400        -1.447116         0.629783
 H         2.530155        -1.840323        -1.083453
 H         5.370751         1.098949        -1.754520
 H         5.368900         0.460757        -0.184540
 H         5.396887        -0.657590        -1.361612
 H         0.734288         1.893482        -1.500147
 H         3.227702         2.265076         0.607572
