19
Iteration:  4517
 C        -0.034942        -0.740398         0.146344
 C         1.345744        -0.097666         0.005201
 C         2.490682        -0.912762        -0.405355
 C         3.394173         0.237250        -0.877748
 C         4.883745         0.140035        -0.974154
 O         2.698535         1.005349        -2.026352
 C         1.614871         1.206485        -0.969140
 C         2.675567         1.372616         0.132255
 O         1.846497         0.687776         1.178037
 H        -0.025282        -1.608678         0.743383
 H        -0.721951         0.044412         0.724303
 H        -0.600640        -0.855381        -0.828744
 H         2.895767        -1.677043         0.262712
 H         2.215710        -1.489625        -1.302472
 H         5.048642         1.258611        -1.251316
 H         5.308459        -0.104674         0.047392
 H         5.102545        -0.614344        -1.752382
 H         0.796963         2.012171        -1.108703
 H         3.169091         2.315979         0.436964
