19
Iteration:  4420charge 0 multiplicity 1
 C        -0.012271        -0.546746         0.106456
 C         1.315273         0.028251        -0.069097
 C         2.512535        -0.931993        -0.481886
 C         3.449727         0.310711        -0.746920
 C         4.873153         0.289614        -1.069359
 O         2.623788         0.783175        -1.896808
 C         1.589164         1.166084        -0.977315
 C         2.686263         1.316920         0.267588
 O         1.859563         0.570977         1.160857
 H        -0.151496        -1.084387         1.013897
 H        -0.929621         0.224808        -0.028899
 H        -0.217212        -1.138684        -0.849624
 H         2.839483        -1.474947         0.437304
 H         2.439844        -1.687346        -1.299092
 H         5.133109         1.303392        -1.590149
 H         5.535643         0.151327        -0.235232
 H         4.946506        -0.487559        -1.867523
 H         0.763613         1.581005        -1.669241
 H         3.284142         2.182898         0.609011
