19
Iteration:  4632charge 0 multiplicity 1
 C         0.004310        -0.731530         0.157841
 C         1.375374        -0.046731        -0.088034
 C         2.456678        -0.863659        -0.560252
 C         3.371915         0.271432        -0.818416
 C         4.921718         0.063086        -0.965673
 O         2.655603         0.932760        -1.944568
 C         1.660456         1.263120        -0.946734
 C         2.638192         1.465780         0.226332
 O         1.794075         0.645445         1.148214
 H         0.329696        -1.404163         1.071473
 H        -0.698045        -0.005267         0.394464
 H        -0.301033        -1.364029        -0.666755
 H         2.908619        -1.464903         0.258633
 H         2.159529        -1.438088        -1.442708
 H         5.345487         0.949383        -1.275671
 H         5.438927        -0.398265        -0.113234
 H         5.085758        -0.642739        -1.797610
 H         0.834179         1.835245        -1.307776
 H         2.899078         2.465272         0.649200
