19
Iteration:  3662
 C        -0.103412        -0.590842         0.245471
 C         1.254727        -0.096189        -0.126091
 C         2.491758        -0.947531        -0.598188
 C         3.462781         0.225082        -0.907612
 C         4.919195         0.259426        -0.897493
 O         2.667742         0.986798        -1.946159
 C         1.620766         1.267506        -0.961655
 C         2.717081         1.264903         0.145185
 O         1.838021         0.525215         1.144232
 H        -0.135973        -1.372455         1.071814
 H        -0.573187         0.344268         0.655584
 H        -0.842627        -0.777215        -0.519889
 H         2.914655        -1.623794         0.229404
 H         2.335630        -1.736034        -1.383042
 H         5.262324         1.234666        -1.265695
 H         5.337878         0.402479         0.119372
 H         5.596088        -0.510696        -1.321385
 H         0.763964         1.908592        -1.019011
 H         3.236613         2.179728         0.547844
