19
Iteration:  3678charge 0 multiplicity 1
 C        -0.167328        -0.588560         0.261222
 C         1.298406        -0.161978        -0.094984
 C         2.492132        -1.015702        -0.580384
 C         3.337030         0.294851        -0.777235
 C         4.953570         0.282662        -0.909044
 O         2.651328         0.983709        -1.930435
 C         1.702493         1.268707        -0.932102
 C         2.666060         1.295893         0.154308
 O         1.924236         0.556918         1.019072
 H        -0.157928        -1.415078         0.955922
 H        -0.717629         0.208875         0.767045
 H        -0.621146        -1.029984        -0.659837
 H         2.770221        -1.650423         0.214698
 H         2.309186        -1.366734        -1.575384
 H         5.285942         1.207297        -1.411388
 H         5.352556         0.176272         0.105531
 H         5.212039        -0.613416        -1.439046
 H         1.078229         2.076232        -1.365142
 H         3.235571         2.079554         0.612413
