19
Iteration:  1821
 C        -0.072417        -0.645342         0.315824
 C         1.259185        -0.041918        -0.072415
 C         2.476231        -0.896756        -0.551577
 C         3.407410         0.326564        -0.849471
 C         4.898745         0.217524        -0.942216
 O         2.659446         0.855406        -2.005561
 C         1.729503         1.237266        -1.000269
 C         2.639690         1.349072         0.173031
 O         1.865268         0.553925         1.104267
 H        -0.016160        -1.266256         1.209931
 H        -0.835019         0.030828         0.669375
 H        -0.522673        -1.114126        -0.628101
 H         2.778837        -1.515697         0.232732
 H         2.341644        -1.539647        -1.532704
 H         5.331170         1.229021        -0.640533
 H         5.159366        -0.408758        -0.115435
 H         5.485839        -0.107644        -1.793636
 H         1.175084         2.101354        -1.283325
 H         2.988998         2.315513         0.509044
