19
Iteration:  1038
 C        -0.052629        -0.657887         0.024524
 C         1.317788        -0.065094        -0.098592
 C         2.527267        -0.909779        -0.344315
 C         3.440759         0.273749        -0.755681
 C         4.871829         0.111590        -1.123451
 O         2.614907         0.918951        -1.914359
 C         1.655847         1.184619        -0.935377
 C         2.654140         1.373911         0.203945
 O         1.834496         0.711145         1.194373
 H         0.014241        -1.301011         0.880908
 H        -0.766211         0.146060         0.119117
 H        -0.209328        -1.339885        -0.881823
 H         2.791388        -1.475145         0.532307
 H         2.394140        -1.708887        -1.182355
 H         5.327657         1.155623        -1.283944
 H         5.418562        -0.345362        -0.413229
 H         5.075804        -0.376882        -2.099368
 H         0.885276         1.963996        -1.101511
 H         3.237586         2.305665         0.392986
