19
Iteration:  2037
 C        -0.025553        -0.592446         0.027397
 C         1.301554        -0.079097        -0.037230
 C         2.546955        -0.916619        -0.365427
 C         3.453857         0.279864        -0.787228
 C         4.855281         0.142641        -1.216207
 O         2.633145         0.949072        -1.862506
 C         1.632067         1.261856        -0.899462
 C         2.682184         1.324256         0.267883
 O         1.830670         0.605771         1.120259
 H        -0.035532        -1.305826         0.815327
 H        -0.803934         0.096898         0.131005
 H        -0.272958        -1.196107        -0.917638
 H         2.768210        -1.460312         0.617286
 H         2.354980        -1.729045        -1.138763
 H         5.316331         1.188410        -1.343023
 H         5.290177        -0.541140        -0.535390
 H         4.914917        -0.277520        -2.188331
 H         0.897149         1.972718        -1.181032
 H         3.137525         2.167638         0.834482
