19
Iteration:  2574
 C        -0.141047        -0.596240        -0.017627
 C         1.290584        -0.048302        -0.023715
 C         2.538730        -0.935412        -0.358500
 C         3.472746         0.248450        -0.749749
 C         4.885030         0.164973        -1.221202
 O         2.682294         0.867387        -1.858538
 C         1.641753         1.112363        -0.928635
 C         2.721358         1.465249         0.228067
 O         1.810625         0.682799         1.212393
 H        -0.213401        -1.004480         0.934934
 H        -0.975631         0.188374        -0.052577
 H        -0.302928        -1.310423        -0.819694
 H         2.940258        -1.661249         0.335564
 H         2.244772        -1.721467        -1.238430
 H         5.083189         1.133163        -1.589935
 H         5.595070        -0.290650        -0.466695
 H         5.005784        -0.375711        -2.207430
 H         0.814143         1.847237        -1.170606
 H         3.356756         2.296546         0.571255
