19
Iteration:  2206charge 0 multiplicity 1
 C        -0.083711        -0.718004        -0.007204
 C         1.280070        -0.021699        -0.046268
 C         2.498958        -0.849716        -0.470043
 C         3.479905         0.284918        -0.768973
 C         4.916790         0.121119        -1.174074
 O         2.560194         0.926768        -1.816783
 C         1.665311         1.241732        -0.845713
 C         2.686023         1.354382         0.256787
 O         1.901956         0.668288         1.162212
 H        -0.216671        -1.433271         0.843476
 H        -0.914241         0.016802        -0.053234
 H        -0.209845        -1.337275        -0.856665
 H         2.670876        -1.632285         0.310212
 H         2.348240        -1.410138        -1.498387
 H         5.429411         1.022160        -1.433660
 H         5.421234        -0.554531        -0.409136
 H         4.923827        -0.556357        -2.101818
 H         0.957038         2.053375        -1.169243
 H         3.219134         2.200935         0.609445
