19
Iteration:  3941charge 0 multiplicity 1
 C        -0.133673        -0.630498        -0.006605
 C         1.331705        -0.122220        -0.021759
 C         2.562849        -0.916145        -0.420600
 C         3.329385         0.296855        -0.816533
 C         4.808107         0.224119        -1.063541
 O         2.651489         0.830441        -1.876962
 C         1.662164         1.227612        -0.978386
 C         2.685130         1.357455         0.178415
 O         1.945950         0.664041         1.225202
 H        -0.151243        -1.436672         0.725077
 H        -0.775629         0.286210         0.219344
 H        -0.257786        -1.088800        -1.021440
 H         2.928243        -1.255674         0.545663
 H         2.374404        -1.506539        -1.292014
 H         5.339558         1.113509        -0.729403
 H         5.382416        -0.568143        -0.559237
 H         4.910271        -0.074166        -2.136256
 H         0.862365         1.958358        -1.279110
 H         3.224475         2.246492         0.599861
