19
Iteration:  3441
 C        -0.076700        -0.743154         0.086337
 C         1.272230        -0.036835        -0.141414
 C         2.528891        -0.864950        -0.448206
 C         3.464139         0.340653        -0.889489
 C         4.926971         0.096013        -1.109290
 O         2.618426         0.901644        -1.872278
 C         1.724600         1.354273        -0.895259
 C         2.620484         1.389159         0.323293
 O         1.836618         0.588810         1.147153
 H        -0.098950        -1.541678         0.804056
 H        -0.825198         0.042433         0.464431
 H        -0.536231        -1.176101        -0.851767
 H         2.791495        -1.317548         0.503198
 H         2.385130        -1.626735        -1.244681
 H         5.405057         0.893236        -1.703158
 H         5.384965        -0.132033        -0.192394
 H         4.947495        -0.795428        -1.725957
 H         0.866364         2.031305        -1.242395
 H         3.215912         2.193503         0.770529
