19
Iteration:  3827
 C        -0.054902        -0.606507         0.182811
 C         1.337804        -0.093914        -0.134611
 C         2.459592        -0.937809        -0.555621
 C         3.382242         0.288204        -0.780644
 C         4.855577         0.247535        -0.867149
 O         2.568490         0.896611        -1.992825
 C         1.649274         1.293087        -0.985388
 C         2.734909         1.312096         0.165480
 O         1.953280         0.554326         1.113788
 H        -0.048587        -1.422733         0.952363
 H        -0.521483         0.259866         0.563340
 H        -0.695582        -0.900211        -0.655885
 H         2.738479        -1.628291         0.265550
 H         2.448751        -1.594341        -1.507688
 H         5.202291         1.246077        -1.069336
 H         5.175762         0.141084         0.205819
 H         5.049124        -0.611505        -1.459032
 H         0.976376         2.086248        -1.177167
 H         3.297105         2.008900         0.728411
