19
Iteration:  1491
 C         0.019669        -0.720073         0.237930
 C         1.281307        -0.083007        -0.178255
 C         2.517881        -0.927226        -0.589891
 C         3.365030         0.278449        -0.792409
 C         4.909360         0.184902        -0.932246
 O         2.645509         0.791776        -1.995335
 C         1.658428         1.263609        -0.954660
 C         2.586124         1.395077         0.194899
 O         1.877901         0.750073         1.156023
 H         0.022738        -1.494835         0.984117
 H        -0.592228         0.178095         0.645184
 H        -0.679268        -0.979516        -0.562948
 H         2.732615        -1.316786         0.417079
 H         2.346532        -1.675543        -1.278500
 H         5.384974         1.138127        -1.042301
 H         5.324092        -0.259972         0.108415
 H         5.161636        -0.513098        -1.720953
 H         1.042370         2.065094        -1.316716
 H         3.170839         2.322665         0.453243
