19
Iteration:  2778charge 0 multiplicity 1
 C        -0.062850        -0.605172         0.181492
 C         1.318798        -0.072638        -0.040700
 C         2.485958        -0.925895        -0.403170
 C         3.466495         0.237892        -0.692899
 C         4.938923         0.181358        -1.025931
 O         2.639534         0.871302        -2.006977
 C         1.658478         1.229099        -0.995690
 C         2.690350         1.351397         0.122825
 O         1.807246         0.683978         1.096632
 H        -0.170171        -1.100411         1.095273
 H        -0.861255         0.155853         0.202202
 H        -0.373419        -1.341863        -0.591802
 H         2.793676        -1.442177         0.495210
 H         2.337569        -1.695180        -1.179090
 H         5.296338         1.216328        -1.037881
 H         5.444410        -0.353471        -0.257510
 H         4.850410        -0.297566        -2.091710
 H         0.728378         1.863262        -1.145775
 H         3.197805         2.194920         0.411985
