19
Iteration:  4225
 C        -0.014679        -0.642525         0.083026
 C         1.284969        -0.014313        -0.040930
 C         2.581682        -0.908184        -0.476895
 C         3.416491         0.289711        -0.663095
 C         4.891871         0.196602        -1.083576
 O         2.615053         0.865326        -1.958349
 C         1.632305         1.160406        -0.990095
 C         2.683204         1.334330         0.235962
 O         1.796089         0.670249         1.172047
 H         0.065930        -1.093778         1.019979
 H        -0.926903        -0.000681         0.219029
 H        -0.270637        -1.364208        -0.702455
 H         2.804783        -1.688905         0.301730
 H         2.468492        -1.333474        -1.497038
 H         5.165468         1.105355        -1.711721
 H         5.452408         0.292767        -0.189722
 H         5.114093        -0.715520        -1.651260
 H         0.844745         1.869111        -1.432294
 H         3.333064         2.203660         0.547181
