19
Iteration:  2052charge 0 multiplicity 1
 C         0.011552        -0.687510        -0.069012
 C         1.375640        -0.044722        -0.032651
 C         2.554881        -0.913750        -0.386366
 C         3.348243         0.297670        -0.696502
 C         4.760031         0.073723        -1.234509
 O         2.710176         0.970035        -1.866361
 C         1.643468         1.214865        -0.850767
 C         2.691185         1.354353         0.228012
 O         1.790588         0.682870         1.217022
 H        -0.188095        -1.451126         0.713037
 H        -0.692241         0.134108         0.257146
 H        -0.137926        -0.988018        -1.069931
 H         2.996215        -1.416223         0.383206
 H         2.419785        -1.545902        -1.286651
 H         5.217134         1.011738        -1.515309
 H         5.624368        -0.399579        -0.709299
 H         4.433656        -0.524190        -2.189557
 H         0.695974         1.841657        -1.082243
 H         3.342469         2.196030         0.494379
