19
Iteration:   118charge 0 multiplicity 1
 C        -0.065675        -0.707667         0.222158
 C         1.249957        -0.030379        -0.086462
 C         2.535061        -0.856850        -0.587031
 C         3.383945         0.361382        -0.766776
 C         4.890156         0.214823        -0.877682
 O         2.673473         0.885658        -1.950262
 C         1.617890         1.290436        -0.984610
 C         2.690462         1.299577         0.183753
 O         1.862054         0.563695         1.073378
 H         0.127591        -1.557606         0.936982
 H        -0.719430        -0.061706         0.775630
 H        -0.750440        -1.101451        -0.664775
 H         2.913372        -1.591458         0.143774
 H         2.506100        -1.384708        -1.637878
 H         5.117873        -0.256763        -1.919197
 H         5.337632         1.194858        -0.875121
 H         5.488202        -0.384828        -0.052787
 H         0.800418         1.899717        -1.446294
 H         3.329689         2.036382         0.616789
