19
Iteration:   642charge 0 multiplicity 1
 C        -0.126554        -0.611048         0.210265
 C         1.270147        -0.092140        -0.104039
 C         2.542164        -0.908514        -0.531952
 C         3.429117         0.234686        -0.795658
 C         4.940876         0.236066        -0.909149
 O         2.640251         0.896801        -1.941645
 C         1.613316         1.276934        -0.948118
 C         2.602333         1.369896         0.166243
 O         1.921912         0.542071         1.063314
 H        -0.013587        -1.466315         0.931539
 H        -0.797762         0.274271         0.764919
 H        -0.578451        -0.799596        -0.708549
 H         2.823761        -1.841357         0.158543
 H         2.505234        -1.329901        -1.490143
 H         5.296461         1.224389        -1.158206
 H         5.361759        -0.128032         0.129097
 H         5.411871        -0.337637        -1.711649
 H         0.869606         1.960794        -1.398210
 H         3.211496         2.181992         0.570544
