19
Iteration:   487charge 0 multiplicity 1
 C        -0.100308        -0.649280         0.186701
 C         1.326562        -0.120021        -0.059582
 C         2.520741        -0.919190        -0.520083
 C         3.406266         0.251185        -0.791767
 C         4.910287         0.238104        -0.904460
 O         2.588736         0.940676        -1.976968
 C         1.689961         1.216859        -0.964383
 C         2.675800         1.339597         0.143666
 O         1.857400         0.617862         1.097640
 H        -0.208859        -1.349972         1.034902
 H        -0.632104         0.210440         0.493232
 H        -0.386808        -1.125975        -0.802189
 H         2.971512        -1.485338         0.268710
 H         2.410257        -1.393526        -1.523268
 H         5.286772         1.259674        -0.741336
 H         5.450767        -0.385851        -0.206857
 H         5.143499        -0.181244        -1.903807
 H         0.826965         1.887942        -1.151874
 H         3.188486         2.174016         0.606395
