19
Iteration:  2632
 C        -0.061764        -0.611925         0.269131
 C         1.280661        -0.092043        -0.091393
 C         2.463604        -0.956540        -0.526355
 C         3.339755         0.310288        -0.859092
 C         4.908015         0.156821        -0.876525
 O         2.652279         0.858278        -2.025199
 C         1.592321         1.234422        -0.963759
 C         2.673743         1.340054         0.063421
 O         1.967687         0.701185         1.152010
 H        -0.141810        -1.685508         0.511139
 H        -0.679556        -0.033370         0.865564
 H        -0.530864        -0.606000        -0.690636
 H         2.919126        -1.555305         0.363731
 H         2.325522        -1.532005        -1.437010
 H         5.381619         1.191399        -0.719183
 H         5.093682        -0.237615         0.206529
 H         5.390451        -0.515842        -1.548473
 H         1.039342         2.083700        -1.238607
 H         3.269853         2.202142         0.553093
