19
Iteration:  3796
 C        -0.163204        -0.629484         0.144277
 C         1.277767        -0.103019        -0.027865
 C         2.493680        -0.941657        -0.499017
 C         3.463618         0.307093        -0.845733
 C         4.909017         0.269502        -1.058970
 O         2.710212         0.909093        -1.927295
 C         1.643044         1.181664        -0.950614
 C         2.750874         1.315862         0.182578
 O         1.808482         0.629640         1.176160
 H        -0.178813        -1.430099         0.932910
 H        -0.695722         0.261961         0.508866
 H        -0.558602        -0.988139        -0.870689
 H         2.850880        -1.518189         0.362702
 H         2.356712        -1.556929        -1.460688
 H         5.303594         1.293848        -1.035322
 H         5.249971        -0.429341        -0.151229
 H         5.044616        -0.295667        -2.013716
 H         0.899530         1.943929        -1.146241
 H         3.276143         2.134290         0.645476
