19
Iteration:  1003
 C        -0.040725        -0.681767         0.118402
 C         1.320651        -0.079906        -0.058065
 C         2.498779        -0.890584        -0.449737
 C         3.406322         0.292553        -0.715851
 C         4.905890         0.115595        -0.967687
 O         2.578615         0.920389        -2.014892
 C         1.679582         1.253284        -1.010108
 C         2.675727         1.338760         0.175834
 O         1.870865         0.669506         1.166276
 H         0.072024        -1.549198         0.782040
 H        -0.871940        -0.167770         0.722971
 H        -0.514147        -1.030606        -0.825247
 H         2.720234        -1.565842         0.359056
 H         2.325600        -1.345517        -1.475264
 H         5.071748         1.133186        -1.363641
 H         5.472738         0.037078        -0.085700
 H         5.133631        -0.703834        -1.652697
 H         1.113884         2.118928        -1.346831
 H         3.272052         2.297036         0.439604
