19
Iteration:  2642charge 0 multiplicity 1
 C        -0.071394        -0.652411         0.244781
 C         1.333231        -0.066867         0.048498
 C         2.469632        -0.985962        -0.548952
 C         3.381586         0.256568        -0.828132
 C         4.838476         0.163802        -0.781791
 O         2.641785         0.923996        -2.065507
 C         1.619778         1.250653        -1.032921
 C         2.678348         1.393451         0.075086
 O         1.947579         0.678475         1.114015
 H        -0.042351        -1.685857         0.622852
 H        -0.504038        -0.066395         1.017837
 H        -0.598770        -0.557034        -0.656220
 H         2.935694        -1.791296         0.180406
 H         2.190874        -1.362642        -1.544642
 H         5.526920         1.023399        -1.031263
 H         5.107118        -0.382552         0.224411
 H         5.116828        -0.526975        -1.546660
 H         0.843543         1.898712        -1.394392
 H         3.341888         2.339835         0.316585
