19
Iteration:  2776
 C        -0.074127        -0.600357         0.168800
 C         1.326493        -0.059946        -0.040462
 C         2.500781        -0.920531        -0.381419
 C         3.483277         0.231994        -0.707620
 C         4.915279         0.176417        -1.035945
 O         2.633621         0.877934        -2.016464
 C         1.658682         1.222116        -0.988278
 C         2.684252         1.334065         0.122047
 O         1.813607         0.679247         1.099420
 H        -0.184779        -1.068587         1.114100
 H        -0.818720         0.153433         0.135990
 H        -0.353783        -1.323602        -0.629936
 H         2.791011        -1.515152         0.564375
 H         2.383556        -1.705916        -1.124029
 H         5.240424         1.252653        -0.970835
 H         5.433477        -0.329136        -0.242897
 H         4.853921        -0.296498        -2.071976
 H         0.741663         1.876623        -1.096928
 H         3.167905         2.272053         0.434294
