19
Iteration:  4281
 C        -0.061009        -0.620282         0.042002
 C         1.308209        -0.111721         0.001334
 C         2.504531        -0.884126        -0.461345
 C         3.396136         0.344869        -0.717736
 C         4.788023         0.282955        -1.011819
 O         2.645946         0.788578        -1.938108
 C         1.672140         1.142523        -0.902423
 C         2.686955         1.380008         0.173361
 O         1.904263         0.607695         1.102895
 H        -0.100534        -1.472035         0.666390
 H        -0.636560         0.220610         0.478939
 H        -0.394920        -0.806284        -0.987475
 H         2.805859        -1.507270         0.406793
 H         2.408807        -1.516116        -1.386395
 H         5.209737         1.116421        -1.673780
 H         5.431631         0.308855        -0.185004
 H         5.070999        -0.643479        -1.498605
 H         0.946399         2.002625        -1.160375
 H         3.257660         2.373710         0.316590
