19
Iteration:  1197
 C        -0.085867        -0.652587         0.061123
 C         1.313520        -0.117298         0.024269
 C         2.510319        -0.943955        -0.311885
 C         3.345112         0.279730        -0.779484
 C         4.895944         0.217542        -1.103684
 O         2.660423         0.849188        -1.950260
 C         1.704111         1.289665        -0.927518
 C         2.708496         1.427354         0.206921
 O         1.830942         0.636704         1.059846
 H        -0.294627        -1.500152         0.734825
 H        -0.796711         0.211966         0.362265
 H        -0.321855        -1.154055        -0.853987
 H         3.034256        -1.385406         0.580618
 H         2.300276        -1.727659        -1.104238
 H         5.215716         1.018573        -1.652979
 H         5.552872         0.064411        -0.183275
 H         4.904967        -0.527093        -1.826534
 H         0.838004         1.785927        -1.265491
 H         3.348544         2.270449         0.509555
