19
Iteration:  3863charge 0 multiplicity 1
 C        -0.051847        -0.687030         0.174608
 C         1.308739        -0.116217        -0.056449
 C         2.444900        -0.942610        -0.541748
 C         3.390730         0.300658        -0.807931
 C         4.962433         0.122041        -0.958316
 O         2.650052         1.030958        -1.960411
 C         1.633770         1.247203        -0.967799
 C         2.629775         1.347731         0.182521
 O         1.890757         0.626266         1.159668
 H        -0.201961        -1.494188         0.922651
 H        -0.664694         0.231334         0.543893
 H        -0.493431        -1.053486        -0.851438
 H         2.724683        -1.608475         0.296387
 H         2.175040        -1.382251        -1.534078
 H         5.461842         0.899849        -1.569980
 H         5.497850         0.070965         0.091568
 H         5.417114        -0.846342        -1.383127
 H         0.735925         1.915663        -1.323032
 H         3.215726         2.329197         0.410649
