19
Iteration:   708charge 0 multiplicity 1
 C        -0.067706        -0.727273         0.048323
 C         1.275356         0.007005        -0.071106
 C         2.563063        -0.818928        -0.394960
 C         3.406889         0.300913        -0.780911
 C         4.872422         0.148620        -1.143876
 O         2.675200         0.847104        -1.911952
 C         1.681120         1.292129        -0.881486
 C         2.683189         1.276843         0.241205
 O         1.804411         0.682842         1.180627
 H        -0.106018        -1.607137         0.670650
 H        -1.064226        -0.200113        -0.296253
 H         0.117503        -1.226973        -0.856477
 H         2.686902        -1.315255         0.658421
 H         2.337364        -1.400542        -1.203310
 H         5.322629         1.126064        -1.307554
 H         5.545738        -0.602463        -0.579366
 H         4.727730        -0.224721        -2.169575
 H         0.853841         1.977019        -1.021403
 H         3.276099         2.083700         0.698179
