19
Iteration:  1434
 C        -0.056098        -0.701176         0.201543
 C         1.289432        -0.038248        -0.126969
 C         2.530792        -0.946753        -0.398485
 C         3.414036         0.290317        -0.767729
 C         4.918391         0.175118        -0.957248
 O         2.589721         0.838231        -2.045615
 C         1.655109         1.292295        -0.979408
 C         2.656743         1.412483         0.171915
 O         1.845713         0.660795         1.093930
 H         0.269100        -1.232576         1.124125
 H        -0.700391         0.168425         0.516941
 H        -0.422114        -1.351309        -0.574766
 H         2.864964        -1.580398         0.495926
 H         2.314083        -1.511423        -1.218860
 H         5.512546         1.074440        -0.787901
 H         5.369214        -0.519428        -0.155673
 H         5.269369        -0.256337        -1.949278
 H         0.832390         1.970267        -1.420846
 H         3.160278         2.282390         0.554961
