19
Iteration:   129
 C        -0.016035        -0.684825         0.269188
 C         1.328758        -0.114132        -0.114423
 C         2.475917        -0.981031        -0.600524
 C         3.404610         0.289337        -0.776681
 C         4.850237         0.303407        -0.909676
 O         2.673822         0.933286        -1.909263
 C         1.630888         1.280294        -1.032712
 C         2.718565         1.371609         0.176268
 O         1.829548         0.589283         1.103416
 H        -0.011937        -1.605137         0.907828
 H        -0.601505         0.103122         0.687217
 H        -0.508204        -1.032462        -0.777187
 H         2.628074        -1.645549         0.267759
 H         2.369628        -1.506538        -1.646545
 H         5.167076        -0.085039        -1.962197
 H         5.430191         1.125283        -0.570309
 H         5.022647        -0.642954        -0.200205
 H         0.936088         1.992812        -1.548584
 H         3.143299         2.197737         0.686959
