19
Iteration:  3268
 C        -0.029160        -0.711496         0.003645
 C         1.302113        -0.068627         0.028358
 C         2.521638        -0.897083        -0.447061
 C         3.421912         0.328557        -0.812744
 C         4.872639         0.070269        -1.092496
 O         2.591677         0.922444        -1.900162
 C         1.672777         1.259121        -0.869202
 C         2.706438         1.432922         0.248782
 O         1.860330         0.667666         1.107479
 H        -0.104661        -1.410888         0.782166
 H        -0.980285        -0.157559         0.233339
 H        -0.340419        -1.235772        -0.867459
 H         2.814703        -1.490782         0.381480
 H         2.361712        -1.556880        -1.327903
 H         5.269580         0.854558        -1.862179
 H         5.544401         0.186179        -0.218518
 H         5.088248        -0.975275        -1.417870
 H         0.781656         1.847029        -1.261653
 H         3.057052         2.376222         0.624307
