19
Iteration:  2120
 C        -0.115142        -0.621184         0.226590
 C         1.343105        -0.165083        -0.036903
 C         2.467424        -0.969409        -0.621336
 C         3.335946         0.264436        -0.894849
 C         4.795422         0.200552        -0.916016
 O         2.687321         0.962447        -1.934890
 C         1.699374         1.318771        -0.935404
 C         2.702941         1.374986         0.193107
 O         1.932665         0.574111         1.130311
 H        -0.195897        -1.629111         0.752061
 H        -0.670718         0.163589         0.808741
 H        -0.540981        -0.822290        -0.736977
 H         2.895396        -1.624313         0.121792
 H         2.298921        -1.405622        -1.546188
 H         5.117748         1.201486        -1.164383
 H         5.310663         0.224379         0.105601
 H         5.128689        -0.588058        -1.662066
 H         0.880614         1.852919        -1.461591
 H         3.452519         2.040129         0.562949
