19
Iteration:   612
 C        -0.070216        -0.639812         0.187076
 C         1.298194        -0.068945        -0.111049
 C         2.456229        -0.928158        -0.495909
 C         3.361631         0.264046        -0.917809
 C         4.836435         0.317021        -0.898146
 O         2.706523         0.921659        -2.032926
 C         1.699750         1.219177        -0.894851
 C         2.677304         1.263135         0.188635
 O         1.865271         0.584355         1.166418
 H         0.153119        -1.574012         0.661058
 H        -0.565720         0.166440         0.787771
 H        -0.710315        -0.828730        -0.673108
 H         2.817688        -1.715983         0.231795
 H         2.262602        -1.312621        -1.492749
 H         5.309719         1.230820        -1.323174
 H         5.057842         0.254664         0.174405
 H         5.344373        -0.562552        -1.307515
 H         1.014252         1.918240        -1.314777
 H         3.397816         2.042915         0.509736
