19
Iteration:  4680charge 0 multiplicity 1
 C        -0.064508        -0.666979         0.169254
 C         1.300139        -0.020764        -0.157940
 C         2.511758        -0.907683        -0.474014
 C         3.422931         0.335355        -0.791848
 C         4.937161         0.159144        -1.009028
 O         2.594921         0.854751        -1.994594
 C         1.704282         1.269822        -0.948995
 C         2.599455         1.356876         0.230976
 O         1.857754         0.572097         1.149324
 H         0.069516        -1.668627         0.485643
 H        -0.545679         0.006872         0.994674
 H        -0.700714        -0.550872        -0.747954
 H         2.684925        -1.508689         0.431255
 H         2.480321        -1.523354        -1.388418
 H         5.339730         0.927161        -1.772879
 H         5.376234         0.477024        -0.035695
 H         5.322451        -0.856861        -1.184626
 H         1.006890         2.184208        -1.072029
 H         3.128581         2.205586         0.677539
