19
Iteration:  2802charge 0 multiplicity 1
 C        -0.044618        -0.699637         0.324287
 C         1.260298        -0.010428        -0.097953
 C         2.490388        -0.907412        -0.539805
 C         3.495288         0.270766        -0.794641
 C         4.889127         0.123735        -0.994616
 O         2.735508         0.790309        -1.938648
 C         1.671329         1.264931        -1.049269
 C         2.614433         1.417184         0.186000
 O         1.815694         0.736514         1.095279
 H         0.151672        -1.469204         1.117213
 H        -0.877892        -0.062935         0.790343
 H        -0.543467        -1.254876        -0.467384
 H         2.665739        -1.736215         0.072920
 H         2.297123        -1.321426        -1.560641
 H         5.262694         1.122586        -0.971814
 H         5.069233        -0.256053         0.033477
 H         5.083879        -0.487051        -1.949451
 H         0.934223         1.995311        -1.432939
 H         2.971834         2.369372         0.539741
