19
Iteration:  2885charge 0 multiplicity 1
 C        -0.109240        -0.543560         0.057486
 C         1.332335        -0.074558        -0.034269
 C         2.543022        -1.004858        -0.414982
 C         3.413864         0.220408        -0.819203
 C         4.894327         0.235517        -1.057791
 O         2.634916         0.760526        -1.876595
 C         1.674655         1.150642        -0.904446
 C         2.670631         1.443382         0.167042
 O         1.843881         0.724355         1.139622
 H        -0.229413        -1.381356         0.752274
 H        -0.728767         0.313602         0.364857
 H        -0.427726        -0.908761        -0.972240
 H         2.855671        -1.525540         0.555887
 H         2.260820        -1.613278        -1.344706
 H         4.967442         1.198682        -1.645062
 H         5.578673         0.112901        -0.222037
 H         5.320357        -0.512694        -1.741827
 H         0.878598         1.877908        -1.300506
 H         3.172153         2.387119         0.514622
