19
Iteration:  4711charge 0 multiplicity 1
 C        -0.159692        -0.589866         0.043901
 C         1.311594        -0.122509        -0.019387
 C         2.518515        -0.943881        -0.482740
 C         3.394349         0.264446        -0.764001
 C         4.864756         0.278439        -1.020729
 O         2.633112         0.854102        -1.960497
 C         1.734375         1.144218        -0.906082
 C         2.689868         1.349966         0.178366
 O         1.928513         0.640493         1.166156
 H        -0.443399        -1.599535         0.376201
 H        -0.787196         0.070714         0.752969
 H        -0.492389        -0.332584        -0.995474
 H         2.787929        -1.634284         0.345055
 H         2.281358        -1.508601        -1.395222
 H         4.939434         1.113201        -1.751784
 H         5.317331         0.674601        -0.109307
 H         5.292698        -0.625801        -1.388684
 H         0.950575         2.002896        -1.039612
 H         3.271114         2.183820         0.654785
