19
Iteration:  1304charge 0 multiplicity 1
 C        -0.068795        -0.787270         0.308743
 C         1.277482        -0.089605        -0.037036
 C         2.518379        -0.866791        -0.581115
 C         3.389412         0.283847        -0.797792
 C         4.872832         0.153889        -0.867756
 O         2.705563         0.841281        -2.062493
 C         1.681711         1.322441        -1.007643
 C         2.623561         1.409570         0.157870
 O         1.864881         0.724490         1.082344
 H         0.079035        -1.610760         1.050172
 H        -0.710658        -0.013876         0.824961
 H        -0.624484        -1.054660        -0.558296
 H         2.758291        -1.601843         0.279513
 H         2.318414        -1.456166        -1.464085
 H         5.312901         1.118505        -1.029332
 H         5.298417        -0.382451         0.082778
 H         5.018825        -0.560144        -1.721647
 H         0.945314         2.088459        -1.380279
 H         3.286655         2.148139         0.575489
