19
Iteration:  3250charge 0 multiplicity 1
 C        -0.064037        -0.636853        -0.007455
 C         1.304032        -0.044044        -0.054997
 C         2.586478        -0.894992        -0.432225
 C         3.463714         0.295739        -0.700238
 C         4.978017         0.105068        -1.250232
 O         2.580739         0.821848        -1.883278
 C         1.665601         1.255343        -0.928315
 C         2.566849         1.424016         0.253498
 O         1.808277         0.669016         1.253302
 H        -0.094244        -1.647214         0.692106
 H        -0.801984         0.186563         0.206722
 H        -0.286895        -1.011635        -1.083835
 H         2.887841        -1.542985         0.544912
 H         2.356717        -1.351110        -1.425176
 H         5.154633         0.771706        -2.029135
 H         5.713177         0.274539        -0.368543
 H         5.142213        -0.960063        -1.608575
 H         0.917812         1.980015        -1.067221
 H         3.117732         2.232612         0.757635
