19
Iteration:   584charge 0 multiplicity 1
 C        -0.093404        -0.664591         0.117585
 C         1.308101        -0.100898        -0.109389
 C         2.466937        -0.972310        -0.490379
 C         3.415331         0.359616        -0.738207
 C         4.956942         0.213178        -0.983525
 O         2.576429         0.935689        -1.890530
 C         1.681963         1.250726        -0.892742
 C         2.672582         1.379592         0.142656
 O         1.884132         0.587850         1.117257
 H        -0.050375        -1.661964         0.679693
 H        -0.760028         0.068000         0.507857
 H        -0.466943        -1.041706        -0.921507
 H         2.725256        -1.577402         0.313728
 H         2.428310        -1.449707        -1.547275
 H         5.468643         1.052533        -1.492600
 H         5.560432         0.033870        -0.090569
 H         4.937602        -0.764966        -1.513076
 H         0.984785         1.945852        -1.397557
 H         3.242347         2.273552         0.377166
