19
Iteration:  3928
 C        -0.072085        -0.676819         0.013062
 C         1.293501        -0.076830        -0.009395
 C         2.533931        -0.931478        -0.397481
 C         3.445633         0.269169        -0.735997
 C         4.862498         0.176893        -1.149978
 O         2.646272         0.904247        -1.892942
 C         1.649572         1.199624        -0.838414
 C         2.704060         1.329863         0.164927
 O         1.846152         0.737961         1.176807
 H        -0.498429        -1.425796         0.633982
 H        -0.892114         0.053108         0.015975
 H        -0.215036        -1.008462        -1.058993
 H         2.965850        -1.696738         0.297477
 H         2.463955        -1.636371        -1.278257
 H         5.245673         1.152262        -1.136579
 H         5.308903        -0.562051        -0.431530
 H         4.980254        -0.006079        -2.190255
 H         0.822167         1.921676        -1.204262
 H         3.279880         2.286869         0.352718
