19
Iteration:  1782
 C        -0.031547        -0.708307         0.240805
 C         1.267675        -0.082950        -0.074451
 C         2.443351        -0.921445        -0.585129
 C         3.401531         0.288545        -0.873378
 C         4.861169         0.161328        -0.905056
 O         2.673878         0.913320        -1.925928
 C         1.652824         1.208548        -0.989966
 C         2.660374         1.442007         0.123857
 O         1.919405         0.654049         1.144566
 H         0.165001        -1.583551         0.938059
 H        -0.730013         0.065712         0.725742
 H        -0.355790        -1.118722        -0.663085
 H         2.856002        -1.510628         0.306896
 H         2.322434        -1.510067        -1.498768
 H         5.379042         1.040578        -1.226044
 H         5.024809        -0.138800         0.210834
 H         5.226879        -0.746980        -1.546909
 H         0.951633         2.109764        -1.294131
 H         2.947357         2.499566         0.394315
