19
Iteration:  1583
 C        -0.129790        -0.706285         0.103081
 C         1.289649        -0.039728        -0.071307
 C         2.556991        -0.915162        -0.336945
 C         3.424683         0.251169        -0.849941
 C         4.887591         0.182201        -1.083461
 O         2.696279         0.884525        -1.975382
 C         1.607658         1.226317        -0.954146
 C         2.653639         1.397928         0.181450
 O         1.866579         0.675958         1.187547
 H         0.090378        -1.356366         0.984056
 H        -0.916835        -0.007079         0.277372
 H        -0.405680        -1.228297        -0.845147
 H         2.882471        -1.301347         0.588287
 H         2.386106        -1.712714        -1.124768
 H         5.366421         1.164524        -1.440460
 H         5.304384         0.033048        -0.126703
 H         5.173425        -0.692091        -1.765503
 H         0.772275         1.936192        -1.233928
 H         3.199750         2.276479         0.516239
