19
Iteration:  4612charge 0 multiplicity 1
 C        -0.047278        -0.720240         0.146871
 C         1.242614        -0.008883        -0.109948
 C         2.619608        -0.911519        -0.457136
 C         3.392923         0.383976        -0.774832
 C         4.898333         0.170594        -1.008443
 O         2.575179         0.860296        -1.942206
 C         1.667156         1.273963        -0.927924
 C         2.699043         1.290461         0.192622
 O         1.854222         0.660138         1.101421
 H        -0.120814        -1.104377         1.236750
 H        -0.894403         0.002928         0.056209
 H        -0.168528        -1.398905        -0.690944
 H         2.650702        -1.637439         0.400878
 H         2.564249        -1.490567        -1.377845
 H         5.529398         1.039993        -0.852661
 H         5.039890        -0.698915        -0.297362
 H         4.897401        -0.283337        -1.998218
 H         1.078324         2.171484        -1.337516
 H         3.226454         2.171122         0.666955
