19
Iteration:  1876charge 0 multiplicity 1
 C        -0.062987        -0.636123        -0.077768
 C         1.309131        -0.047149        -0.017756
 C         2.599965        -0.925028        -0.380346
 C         3.392372         0.280290        -0.901549
 C         4.894031         0.136365        -1.199625
 O         2.600161         0.815908        -1.894596
 C         1.638966         1.244909        -0.878498
 C         2.688905         1.421073         0.340087
 O         1.798875         0.689567         1.260164
 H        -0.148352        -1.408857         0.743809
 H        -0.687331         0.273553         0.095216
 H        -0.376225        -1.155484        -1.074879
 H         3.063210        -1.200763         0.508061
 H         2.427194        -1.821486        -1.137571
 H         5.380887         1.162782        -1.394067
 H         5.458989        -0.405065        -0.481078
 H         5.154396        -0.405566        -2.159703
 H         0.829392         1.854279        -1.312971
 H         3.325658         2.163872         0.849090
