19
Iteration:  1968charge 0 multiplicity 1
 C        -0.080976        -0.588379         0.310924
 C         1.285825        -0.074844        -0.099594
 C         2.524703        -0.929759        -0.637883
 C         3.346117         0.325773        -0.888883
 C         4.834373         0.200066        -0.843755
 O         2.661940         0.952479        -2.014253
 C         1.656685         1.260943        -0.988712
 C         2.634317         1.270263         0.208991
 O         1.980578         0.541655         1.102253
 H         0.037852        -1.373167         1.111092
 H        -0.747539         0.236554         0.703463
 H        -0.686219        -1.054235        -0.437909
 H         2.912885        -1.696053         0.203326
 H         2.394728        -1.395159        -1.589918
 H         5.250671         1.124555        -1.085351
 H         5.040540        -0.142380         0.202198
 H         5.297136        -0.517760        -1.492990
 H         0.951590         2.073375        -1.282562
 H         3.201615         2.103980         0.606798
