19
Iteration:  1439charge 0 multiplicity 1
 C        -0.020107        -0.695152         0.209507
 C         1.298770        -0.107773        -0.122113
 C         2.529533        -0.970214        -0.378646
 C         3.348265         0.319687        -0.796691
 C         4.918542         0.126081        -0.933120
 O         2.649592         0.873073        -2.083439
 C         1.608734         1.329767        -0.968806
 C         2.652964         1.419801         0.160029
 O         1.870743         0.687835         1.115015
 H         0.274525        -1.256767         1.095037
 H        -0.772450         0.058226         0.524816
 H        -0.649864        -1.336261        -0.491009
 H         2.800808        -1.579401         0.432177
 H         2.349024        -1.586926        -1.390684
 H         5.422561         1.085897        -0.694495
 H         5.374813        -0.534140        -0.128298
 H         5.196852        -0.194377        -1.905354
 H         0.800191         1.796233        -1.442590
 H         3.179771         2.346177         0.534451
