19
Iteration:  1178
 C        -0.056279        -0.649898         0.116662
 C         1.300294        -0.015087        -0.064468
 C         2.537909        -0.925006        -0.440163
 C         3.413835         0.309569        -0.757946
 C         4.908967         0.131516        -1.058955
 O         2.662778         0.898408        -1.922685
 C         1.615694         1.162127        -0.973268
 C         2.607609         1.322829         0.116833
 O         1.906587         0.707797         1.207608
 H        -0.037971        -1.562924         0.649909
 H        -0.804784         0.020515         0.594180
 H        -0.475150        -0.915272        -0.902703
 H         2.651833        -1.493699         0.378374
 H         2.449698        -1.567802        -1.354160
 H         5.263436         1.048281        -1.683423
 H         5.331670         0.214934         0.000889
 H         5.133739        -0.809602        -1.615183
 H         0.858188         1.843189        -1.259837
 H         2.930599         2.328589         0.462699
