19
Iteration:  4708
 C        -0.146845        -0.586146         0.038948
 C         1.329007        -0.077881        -0.015603
 C         2.513301        -0.955282        -0.499501
 C         3.412373         0.271740        -0.786649
 C         4.865497         0.281537        -1.007055
 O         2.618795         0.849385        -1.924538
 C         1.701115         1.144928        -0.912823
 C         2.698260         1.344409         0.182721
 O         1.910630         0.636118         1.150023
 H        -0.380125        -1.644954         0.413261
 H        -0.677435         0.035171         0.702803
 H        -0.488664        -0.267032        -0.914756
 H         2.788012        -1.623079         0.344536
 H         2.254145        -1.536884        -1.380676
 H         4.923283         1.039300        -1.729223
 H         5.410782         0.672130        -0.120565
 H         5.295857        -0.654516        -1.366919
 H         0.926625         1.841347        -1.131314
 H         3.350388         2.120908         0.666132
