19
Iteration:  4059charge 0 multiplicity 1
 C        -0.015270        -0.677016         0.066054
 C         1.347649        -0.087946         0.014299
 C         2.540699        -0.920732        -0.436248
 C         3.380859         0.324348        -0.813283
 C         4.872426         0.110821        -1.044388
 O         2.661176         0.933224        -1.928222
 C         1.544605         1.272606        -0.893774
 C         2.643860         1.360480         0.190514
 O         1.877617         0.663637         1.137566
 H        -0.383672        -1.458240         0.788628
 H        -0.832543         0.113126         0.014264
 H        -0.113702        -1.172232        -0.955186
 H         2.863921        -1.505989         0.507859
 H         2.411782        -1.501480        -1.407940
 H         5.310163         0.781212        -1.732959
 H         5.519382         0.300677        -0.088432
 H         5.099508        -0.918782        -1.381125
 H         0.751518         1.890542        -1.381485
 H         3.317501         2.171437         0.385198
