19
Iteration:  2683charge 0 multiplicity 1
 C        -0.070502        -0.664865         0.265609
 C         1.263692         0.010343        -0.089825
 C         2.557436        -0.947644        -0.479708
 C         3.396561         0.337812        -0.815242
 C         4.933791         0.079958        -0.950297
 O         2.666467         0.888121        -1.986117
 C         1.716634         1.327605        -0.993180
 C         2.674477         1.371709         0.088714
 O         1.774925         0.636514         1.101624
 H         0.248189        -1.570289         0.804518
 H        -0.699651        -0.131687         1.066917
 H        -0.788593        -1.125130        -0.429351
 H         2.744988        -1.370055         0.491149
 H         2.302839        -1.638616        -1.337734
 H         5.462380         0.865706        -1.402819
 H         5.412427        -0.049441         0.022989
 H         4.959960        -0.828613        -1.555143
 H         0.861809         1.888335        -1.320817
 H         3.111650         2.229376         0.579052
