19
Iteration:   550
 C        -0.029151        -0.687915         0.039347
 C         1.282625        -0.101946         0.013571
 C         2.577845        -0.923441        -0.402701
 C         3.400732         0.308451        -0.851900
 C         4.880553         0.158427        -1.103051
 O         2.636896         0.949234        -1.892545
 C         1.735134         1.284759        -0.953497
 C         2.622522         1.411606         0.260255
 O         1.765507         0.608276         1.182133
 H        -0.258080        -1.407310         0.850201
 H        -0.803193        -0.010307         0.102230
 H        -0.184769        -1.173674        -1.043372
 H         3.030513        -1.424766         0.358978
 H         2.602650        -1.757229        -1.248204
 H         5.525805         0.997147        -1.512744
 H         5.294876        -0.428150        -0.335881
 H         4.860823        -0.492906        -2.032138
 H         0.929281         1.967317        -1.298291
 H         3.258788         2.251899         0.601292
