19
Iteration:  2080charge 0 multiplicity 1
 C        -0.100812        -0.759036        -0.041792
 C         1.294871         0.022360        -0.019242
 C         2.519542        -0.832910        -0.427561
 C         3.421734         0.305866        -0.837352
 C         4.990200         0.030408        -1.201912
 O         2.589964         0.875363        -1.883203
 C         1.625494         1.326334        -0.837499
 C         2.659070         1.447620         0.326879
 O         1.866838         0.632130         1.181839
 H        -0.083562        -1.662204         0.545262
 H        -0.847036        -0.188192         0.461507
 H        -0.370331        -0.836732        -1.183184
 H         2.964992        -1.494196         0.481125
 H         2.237064        -1.575098        -1.258490
 H         5.498242         0.928252        -1.728709
 H         5.575955        -0.312070        -0.364738
 H         5.063030        -0.747865        -1.896264
 H         0.806724         1.909142        -1.150614
 H         3.264999         2.214113         0.875203
