19
Iteration:  3951
 C        -0.060375        -0.598355         0.015434
 C         1.304205        -0.045295        -0.032395
 C         2.533779        -0.934221        -0.394239
 C         3.388546         0.318781        -0.771753
 C         4.860991         0.225020        -1.019218
 O         2.599798         0.822914        -2.003054
 C         1.649805         1.227007        -0.955019
 C         2.645240         1.383471         0.258594
 O         1.958472         0.581286         1.159174
 H        -0.156663        -1.296838         0.823220
 H        -0.829583         0.158370         0.344218
 H        -0.487450        -0.986450        -0.934544
 H         2.908970        -1.551035         0.444497
 H         2.465660        -1.757873        -1.105290
 H         5.355294         1.136944        -0.825998
 H         5.157939        -0.637594        -0.425723
 H         5.028335         0.168520        -2.086190
 H         0.851892         1.931720        -1.387455
 H         3.252550         2.282797         0.529684
