19
Iteration:  2577
 C        -0.131878        -0.598272        -0.002538
 C         1.300538        -0.057824        -0.022192
 C         2.522596        -0.920014        -0.394147
 C         3.435614         0.225467        -0.760361
 C         4.869596         0.201277        -1.221723
 O         2.706939         0.849509        -1.846647
 C         1.671762         1.117292        -0.919204
 C         2.703787         1.440572         0.209586
 O         1.815923         0.693809         1.217731
 H        -0.285585        -1.096159         0.967561
 H        -0.834201         0.181227        -0.072330
 H        -0.464176        -1.192017        -0.814531
 H         3.011824        -1.647489         0.322792
 H         2.246060        -1.635677        -1.111783
 H         5.076382         1.238008        -1.580908
 H         5.552763        -0.355950        -0.461796
 H         4.964214        -0.391565        -2.108442
 H         0.961221         1.794436        -1.270400
 H         3.286778         2.346313         0.620083
