19
Iteration:  3429charge 0 multiplicity 1
 C        -0.072328        -0.755852        -0.015903
 C         1.285269        -0.084761        -0.099980
 C         2.521136        -0.832398        -0.331992
 C         3.385544         0.333606        -0.725932
 C         4.831247         0.041033        -1.211477
 O         2.648940         0.957096        -1.930935
 C         1.687223         1.261889        -0.881886
 C         2.697246         1.385892         0.291549
 O         1.853096         0.644442         1.150439
 H         0.053958        -1.511260         0.719627
 H        -0.807725         0.031468         0.326011
 H        -0.357454        -1.160739        -1.042950
 H         2.903369        -1.323291         0.528032
 H         2.515877        -1.547464        -1.189606
 H         5.284942         1.056316        -1.434663
 H         5.379504        -0.183866        -0.386669
 H         5.059609        -0.668904        -1.946217
 H         0.986293         2.149362        -1.103646
 H         3.264548         2.179440         0.818230
