19
Iteration:  1430charge 0 multiplicity 1
 C        -0.062779        -0.685379         0.207021
 C         1.286979         0.003001        -0.115806
 C         2.530458        -0.909157        -0.406422
 C         3.456031         0.273339        -0.761719
 C         4.925371         0.194486        -0.966637
 O         2.558227         0.817039        -1.995966
 C         1.682580         1.253911        -1.005623
 C         2.654072         1.393442         0.167419
 O         1.827663         0.649748         1.080054
 H         0.155912        -1.267442         1.122801
 H        -0.681700         0.121856         0.463932
 H        -0.299477        -1.361342        -0.640411
 H         2.854997        -1.480245         0.453126
 H         2.320248        -1.632097        -1.322733
 H         5.520057         1.151381        -0.875691
 H         5.269087        -0.473130        -0.260417
 H         5.228256        -0.264363        -1.907388
 H         0.946142         2.022902        -1.292700
 H         3.176054         2.266345         0.578765
