19
Iteration:  2195charge 0 multiplicity 1
 C        -0.074886        -0.718412         0.049638
 C         1.306078        -0.042927        -0.010645
 C         2.416447        -0.906971        -0.511804
 C         3.406024         0.338885        -0.749237
 C         4.881983         0.144250        -1.126924
 O         2.652540         0.979491        -1.913898
 C         1.644587         1.222804        -0.871457
 C         2.768551         1.346161         0.197233
 O         1.888917         0.591296         1.179600
 H        -0.291704        -1.155653         1.049784
 H        -0.754115         0.164517         0.086424
 H        -0.282520        -1.280355        -0.798875
 H         2.798094        -1.480999         0.358485
 H         2.159387        -1.581505        -1.464681
 H         5.445788         1.064356        -1.111577
 H         5.406559        -0.393577        -0.244969
 H         5.065767        -0.400644        -2.111860
 H         0.763020         1.901106        -1.156544
 H         3.186672         2.262271         0.515547
