19
Iteration:  2241
 C         0.012345        -0.652507        -0.036417
 C         1.333286        -0.067713        -0.062430
 C         2.546724        -0.841026        -0.320535
 C         3.379881         0.276199        -0.838598
 C         4.795697         0.090705        -1.238543
 O         2.622981         0.987414        -1.840814
 C         1.707297         1.222250        -0.879263
 C         2.702372         1.304664         0.268446
 O         1.798202         0.641915         1.174849
 H        -0.005135        -1.579060         0.558184
 H        -0.760163        -0.046908         0.363485
 H        -0.107290        -0.809839        -1.168192
 H         2.811991        -1.375190         0.704673
 H         2.323032        -1.574736        -1.040568
 H         5.258113         1.051639        -1.709616
 H         5.436386        -0.259962        -0.318432
 H         4.722430        -0.679373        -2.033666
 H         0.946043         1.899135        -1.043165
 H         3.245693         2.154874         0.727041
