19
Iteration:  1721
 C        -0.083538        -0.629540         0.000513
 C         1.312615        -0.050213         0.037251
 C         2.546908        -0.859381        -0.271637
 C         3.425232         0.222307        -0.749683
 C         4.888265         0.213110        -1.204517
 O         2.635946         0.862089        -1.994486
 C         1.662585         1.187774        -0.948585
 C         2.697968         1.322021         0.254512
 O         1.797114         0.674442         1.189260
 H        -0.201815        -1.506680         0.609008
 H        -0.849292         0.125382         0.079309
 H        -0.300317        -1.049385        -1.076126
 H         2.945395        -1.506481         0.582022
 H         2.360376        -1.572684        -1.187488
 H         5.127942         1.119655        -1.814039
 H         5.568070         0.438516        -0.357348
 H         5.205573        -0.630385        -1.716446
 H         0.940214         1.827711        -1.332057
 H         3.214913         2.132066         0.780025
