19
Iteration:  1440charge 0 multiplicity 1
 C        -0.015147        -0.691079         0.212015
 C         1.301656        -0.119486        -0.119499
 C         2.526422        -0.970223        -0.381880
 C         3.338592         0.324956        -0.804742
 C         4.917630         0.114390        -0.921987
 O         2.662213         0.880531        -2.084667
 C         1.603430         1.329406        -0.969664
 C         2.651054         1.420961         0.155454
 O         1.875507         0.693792         1.118964
 H         0.255758        -1.282310         1.103175
 H        -0.765768         0.011846         0.519697
 H        -0.668751        -1.322570        -0.465241
 H         2.797243        -1.585460         0.437853
 H         2.369028        -1.603050        -1.412106
 H         5.402987         1.107447        -0.684248
 H         5.340499        -0.516829        -0.165059
 H         5.181308        -0.190448        -1.914069
 H         0.769094         1.789960        -1.444487
 H         3.174532         2.335307         0.520891
