19
Iteration:  3857charge 0 multiplicity 1
 C        -0.051540        -0.649355         0.176753
 C         1.346090        -0.062551        -0.029515
 C         2.462004        -0.927634        -0.615424
 C         3.391083         0.266867        -0.834296
 C         4.974844         0.122548        -0.920695
 O         2.645393         0.993566        -1.953033
 C         1.592894         1.211218        -0.950116
 C         2.618954         1.356551         0.145214
 O         1.897750         0.630885         1.166860
 H        -0.222572        -1.464132         0.895038
 H        -0.786070         0.058277         0.545859
 H        -0.532846        -0.985240        -0.692338
 H         2.829405        -1.649774         0.120443
 H         2.199394        -1.442527        -1.524736
 H         5.483858         0.933370        -1.536638
 H         5.283133         0.160644         0.079307
 H         5.466487        -0.764037        -1.358191
 H         0.945676         1.992656        -1.238193
 H         2.975964         2.196669         0.712805
