19
Iteration:  1155charge 0 multiplicity 1
 C        -0.036967        -0.695694         0.207416
 C         1.373146        -0.086727        -0.043438
 C         2.530665        -0.910368        -0.512247
 C         3.397661         0.371588        -0.832807
 C         4.881695         0.100366        -0.899569
 O         2.583718         0.851738        -1.971258
 C         1.652552         1.247539        -0.975918
 C         2.702411         1.445678         0.112264
 O         1.820553         0.647150         1.109642
 H        -0.065053        -1.641036         0.707427
 H        -0.545275         0.109112         0.848535
 H        -0.671099        -0.794954        -0.695825
 H         2.910439        -1.653760         0.101310
 H         2.275567        -1.376388        -1.503065
 H         5.321157         0.945080        -1.506165
 H         5.244012         0.251436         0.239249
 H         5.163064        -0.836270        -1.404396
 H         1.014188         1.977850        -1.333573
 H         3.211797         2.204051         0.749061
