19
Iteration:  4991
 C        -0.039485        -0.663949         0.159593
 C         1.306218        -0.077887        -0.045895
 C         2.449437        -0.899694        -0.538757
 C         3.343436         0.305793        -0.769175
 C         4.793585         0.209742        -1.005660
 O         2.739450         0.926304        -1.957596
 C         1.747442         1.207203        -0.960911
 C         2.704050         1.384100         0.227628
 O         1.861997         0.560417         1.092201
 H        -0.325530        -1.069724         1.192861
 H        -0.852678         0.091320         0.142450
 H        -0.425601        -1.403661        -0.528300
 H         2.869538        -1.544253         0.274486
 H         2.265697        -1.452711        -1.464604
 H         5.272642         1.246259        -1.024063
 H         5.264253        -0.417075        -0.209397
 H         4.860427        -0.272904        -1.995599
 H         0.937762         1.974298        -0.999300
 H         3.203732         2.311021         0.741491
