19
Iteration:   445
 C        -0.045558        -0.652244         0.214158
 C         1.301824        -0.089698        -0.022439
 C         2.570551        -0.894258        -0.607259
 C         3.403307         0.288152        -0.721589
 C         4.843800         0.249046        -0.862037
 O         2.598717         0.943649        -1.967276
 C         1.689118         1.243513        -1.060339
 C         2.667898         1.345843         0.176128
 O         1.871032         0.528341         1.067553
 H        -0.026827        -1.573106         0.831774
 H        -0.484374         0.293977         0.776241
 H        -0.634820        -0.801118        -0.669311
 H         2.782392        -1.669373         0.250387
 H         2.241573        -1.531784        -1.399502
 H         5.255552         1.152684        -1.272157
 H         5.420412         0.152189         0.083708
 H         5.031515        -0.671833        -1.432993
 H         0.804530         1.826774        -1.388502
 H         3.266274         2.219539         0.301842
