19
Iteration:  3387
 C        -0.095906        -0.658862        -0.057520
 C         1.343522        -0.032379        -0.005172
 C         2.568205        -0.892988        -0.367700
 C         3.520722         0.276775        -0.807356
 C         4.875797         0.135139        -1.164973
 O         2.549752         0.831110        -1.925349
 C         1.684433         1.212943        -0.897068
 C         2.680316         1.388712         0.289223
 O         1.842724         0.682991         1.215891
 H        -0.222605        -1.479303         0.624794
 H        -0.876667         0.138723         0.247591
 H        -0.467565        -1.011882        -1.064030
 H         2.775349        -1.633398         0.369543
 H         2.441075        -1.345922        -1.376818
 H         5.255791         1.162110        -0.906816
 H         5.416673        -0.605073        -0.610638
 H         5.125518         0.112499        -2.231747
 H         0.717043         1.760596        -1.164909
 H         2.976669         2.358176         0.689965
