19
Iteration:   506charge 0 multiplicity 1
 C        -0.018327        -0.679891         0.085424
 C         1.345620        -0.057977        -0.009960
 C         2.519827        -0.991980        -0.437249
 C         3.373177         0.322898        -0.770908
 C         4.840130         0.255122        -1.067927
 O         2.680378         0.844784        -1.951999
 C         1.690819         1.353999        -0.977377
 C         2.642966         1.342977         0.219591
 O         1.826445         0.611323         1.171341
 H        -0.174137        -1.302750         0.973347
 H        -0.843898        -0.036520         0.165139
 H        -0.282327        -1.330312        -0.863616
 H         2.820023        -1.654399         0.316525
 H         2.157984        -1.572936        -1.381652
 H         5.432341         1.206180        -0.871331
 H         5.147706        -0.512958        -0.396934
 H         5.044145        -0.059199        -2.140973
 H         1.012876         2.082280        -1.427545
 H         3.190685         2.177743         0.712631
