19
Iteration:  3191
 C        -0.066383        -0.595294         0.153510
 C         1.289864        -0.024269        -0.094806
 C         2.480036        -0.889488        -0.522131
 C         3.382132         0.303164        -0.864966
 C         4.901376         0.236614        -0.928489
 O         2.610849         0.782837        -1.961630
 C         1.659975         1.168133        -0.929641
 C         2.718799         1.358450         0.175978
 O         1.906978         0.629393         1.154875
 H        -0.132481        -1.475703         0.754563
 H        -0.849868         0.115773         0.609597
 H        -0.515601        -0.889754        -0.814942
 H         2.754204        -1.514426         0.269665
 H         2.254272        -1.584334        -1.377425
 H         5.465302         1.309365        -1.057824
 H         5.232931        -0.130622         0.028574
 H         5.326214        -0.409331        -1.733666
 H         0.834454         1.932925        -1.140237
 H         3.299872         2.194775         0.582837
