19
Iteration:  4675
 C        -0.090178        -0.696682         0.175631
 C         1.264568        -0.035130        -0.102068
 C         2.516628        -0.884809        -0.495133
 C         3.475995         0.333987        -0.820060
 C         4.889935         0.152512        -0.964583
 O         2.612903         0.885102        -1.993316
 C         1.721610         1.276021        -0.937588
 C         2.618842         1.380567         0.221867
 O         1.857503         0.573181         1.118651
 H        -0.065484        -1.798084         0.531803
 H        -0.468659        -0.016555         0.854942
 H        -0.785992        -0.682066        -0.647562
 H         2.770701        -1.444859         0.426908
 H         2.437959        -1.571328        -1.345113
 H         5.189049         0.796449        -1.726176
 H         5.512240         0.419820        -0.099455
 H         5.243431        -0.833920        -1.299896
 H         1.040496         2.058720        -1.150156
 H         3.171731         2.257031         0.597896
