19
Iteration:  2447
 C        -0.215377        -0.549338         0.123666
 C         1.260869        -0.092641         0.008137
 C         2.512830        -0.956303        -0.518551
 C         3.436324         0.344750        -0.825709
 C         4.916224         0.227455        -1.006684
 O         2.602139         0.855555        -1.945571
 C         1.679671         1.183651        -0.979576
 C         2.709752         1.317217         0.174283
 O         1.940436         0.620405         1.154109
 H        -0.067598        -1.670480         0.544618
 H        -0.686247         0.077698         0.895991
 H        -0.644783        -0.615036        -0.913279
 H         2.759565        -1.505568         0.480172
 H         2.323973        -1.619417        -1.305070
 H         5.460123         1.189610        -1.089959
 H         5.401123        -0.123038        -0.036476
 H         5.212047        -0.391002        -1.814545
 H         1.033558         1.951226        -1.263627
 H         3.265279         2.226408         0.546043
