19
Iteration:  3555charge 0 multiplicity 1
 C        -0.084256        -0.688747         0.034040
 C         1.300781        -0.084716        -0.047283
 C         2.439651        -0.874389        -0.428741
 C         3.393786         0.399848        -0.708105
 C         4.905759         0.135271        -1.167623
 O         2.702064         0.929867        -1.871796
 C         1.708842         1.201319        -0.964839
 C         2.670529         1.382372         0.193501
 O         1.835213         0.600648         1.226738
 H        -0.099447        -1.557217         0.817640
 H        -0.823218         0.119825         0.279502
 H        -0.418253        -1.113311        -0.960140
 H         2.699563        -1.537383         0.428628
 H         2.214195        -1.396163        -1.387180
 H         5.533740         1.035756        -1.267141
 H         5.556499        -0.688893        -0.615805
 H         4.919566        -0.140406        -2.259804
 H         0.886649         1.808404        -1.227886
 H         3.257180         2.169478         0.682101
