19
Iteration:   251charge 0 multiplicity 1
 C         0.047489        -0.691210         0.110806
 C         1.312974        -0.020430        -0.091120
 C         2.509009        -0.905686        -0.402773
 C         3.375209         0.388182        -0.784043
 C         4.866549         0.204258        -0.991854
 O         2.684605         0.860397        -1.986621
 C         1.574483         1.216118        -0.950214
 C         2.638647         1.342346         0.191007
 O         1.845820         0.611505         1.107040
 H         0.051518        -1.528927         0.852363
 H        -0.710543         0.080691         0.630083
 H        -0.430912        -1.065307        -0.800596
 H         2.934306        -1.625751         0.490256
 H         2.293310        -1.477343        -1.285196
 H         5.443699         1.135846        -0.851970
 H         5.379666        -0.556047        -0.232448
 H         4.954736        -0.236429        -2.011444
 H         0.897008         1.983847        -1.245632
 H         3.150302         2.173691         0.631213
