19
Iteration:  4071
 C        -0.090762        -0.660295        -0.022769
 C         1.279474        -0.068687        -0.034308
 C         2.498788        -0.934101        -0.417243
 C         3.395041         0.317936        -0.743810
 C         4.876000         0.152571        -1.101133
 O         2.655652         0.905417        -1.839920
 C         1.625018         1.166090        -0.937605
 C         2.637846         1.438934         0.160859
 O         1.976981         0.657660         1.169119
 H        -0.107542        -1.326314         0.805374
 H        -0.903875         0.152351         0.102361
 H        -0.189914        -1.271961        -0.968794
 H         2.934494        -1.534379         0.447840
 H         2.398694        -1.657390        -1.247420
 H         5.068834         0.898479        -1.802845
 H         5.456464         0.272408        -0.156327
 H         5.098598        -0.832320        -1.523616
 H         0.814174         1.819768        -1.232305
 H         2.997620         2.359782         0.557192
