19
Iteration:  1726charge 0 multiplicity 1
 C        -0.051423        -0.623278        -0.018388
 C         1.297187        -0.064806         0.023361
 C         2.543246        -0.908398        -0.263068
 C         3.426018         0.262489        -0.835826
 C         4.891854         0.217246        -1.192399
 O         2.679899         0.846313        -1.950333
 C         1.613333         1.206771        -0.928473
 C         2.692766         1.329538         0.233249
 O         1.772694         0.676966         1.192383
 H        -0.134352        -1.458602         0.733225
 H        -0.858987         0.118238         0.203107
 H        -0.156714        -0.936630        -1.022318
 H         2.993002        -1.435266         0.539826
 H         2.336991        -1.621886        -1.107235
 H         5.143257         1.045260        -1.869759
 H         5.526472         0.369271        -0.315693
 H         5.242229        -0.768208        -1.707555
 H         0.777378         1.986649        -1.166732
 H         3.273254         2.128535         0.713978
