19
Iteration:  2761charge 0 multiplicity 1
 C        -0.092972        -0.533571         0.012898
 C         1.292234        -0.070572        -0.040230
 C         2.631562        -0.973812        -0.253990
 C         3.324000         0.243057        -0.831203
 C         4.848971         0.207559        -1.077772
 O         2.589616         0.855197        -1.977476
 C         1.688664         1.170930        -0.939221
 C         2.691056         1.334569         0.168619
 O         1.885437         0.672452         1.152678
 H        -0.381992        -0.979274         1.057037
 H        -0.832472         0.294750        -0.185339
 H        -0.246859        -1.356614        -0.679161
 H         3.011186        -1.297049         0.768878
 H         2.540481        -1.715810        -1.061823
 H         5.298034         1.214361        -1.135037
 H         5.314597        -0.425958        -0.242056
 H         5.210162        -0.177402        -1.978787
 H         1.022333         1.940074        -1.226762
 H         3.201681         2.354267         0.498993
