19
Iteration:  1963charge 0 multiplicity 1
 C        -0.093193        -0.602450         0.331958
 C         1.251355        -0.080831        -0.110449
 C         2.519780        -0.889199        -0.606021
 C         3.386041         0.339163        -0.865992
 C         4.847329         0.195156        -0.850556
 O         2.634821         0.946644        -1.995663
 C         1.660195         1.256092        -0.999367
 C         2.697017         1.273016         0.177975
 O         1.942486         0.520827         1.090508
 H        -0.037189        -1.334105         1.148443
 H        -0.754072         0.156523         0.793197
 H        -0.609495        -0.984700        -0.609942
 H         2.948636        -1.564938         0.015294
 H         2.487844        -1.405805        -1.628714
 H         5.416942         1.181147        -1.072385
 H         5.016518        -0.058459         0.191486
 H         5.212393        -0.667263        -1.531912
 H         0.894491         2.018857        -1.222937
 H         3.308190         2.121340         0.550814
