19
Iteration:  4809charge 0 multiplicity 1
 C         0.023779        -0.726184         0.171148
 C         1.290148        -0.057358        -0.116854
 C         2.472294        -0.916353        -0.523762
 C         3.374702         0.298108        -0.766101
 C         4.893519         0.107623        -0.977040
 O         2.659121         0.965166        -1.964658
 C         1.645857         1.318979        -0.962458
 C         2.668021         1.370054         0.185663
 O         1.815032         0.619531         1.133772
 H         0.157633        -1.062493         1.214845
 H        -0.845317         0.028896         0.187917
 H         0.007720        -1.585352        -0.508599
 H         2.814781        -1.386639         0.442068
 H         2.454585        -1.695431        -1.319790
 H         5.544755         0.903473        -0.531111
 H         5.011650        -0.810116        -0.433922
 H         4.955381        -0.010724        -2.019504
 H         0.837297         2.148790        -1.293967
 H         3.394026         2.216313         0.514337
