19
Iteration:  1075charge 0 multiplicity 1
 C        -0.080980        -0.613260         0.104247
 C         1.295940        -0.099714        -0.154063
 C         2.544402        -0.904042        -0.408069
 C         3.411967         0.296281        -0.801701
 C         4.898256         0.217646        -1.135259
 O         2.643074         0.827570        -1.887650
 C         1.698583         1.176492        -0.915139
 C         2.622291         1.368762         0.191796
 O         1.859323         0.688937         1.178733
 H        -0.282863        -1.075110         1.139402
 H        -0.822166         0.199295         0.080917
 H        -0.426659        -1.352049        -0.638966
 H         3.002156        -1.485320         0.508807
 H         2.438254        -1.518591        -1.288669
 H         5.402443         1.129349        -0.905193
 H         5.195659        -0.541564        -0.200146
 H         5.119448        -0.191023        -2.143020
 H         0.830973         1.864928        -1.234719
 H         3.163118         2.235607         0.532369
