19
Iteration:  1363
 C        -0.142859        -0.572044         0.003103
 C         1.337278        -0.036444        -0.037055
 C         2.699900        -0.841886        -0.352662
 C         3.399067         0.354162        -0.811707
 C         4.842582         0.210285        -1.080843
 O         2.583564         0.754427        -1.934510
 C         1.660585         1.154934        -0.909234
 C         2.703814         1.337087         0.154611
 O         1.806434         0.638222         1.183512
 H        -0.066761        -1.379892         0.748808
 H        -0.748070         0.232197         0.476481
 H        -0.619900        -1.043817        -0.959703
 H         2.953431        -1.389200         0.546340
 H         2.534910        -1.516470        -1.387893
 H         5.477477         0.868053        -1.744564
 H         5.376808         0.237757        -0.108405
 H         5.011582        -0.806315        -1.408124
 H         0.891177         1.855857        -1.209066
 H         3.284190         2.220016         0.559152
