19
Iteration:  1517charge 0 multiplicity 1
 C        -0.065146        -0.646165         0.130435
 C         1.280571        -0.028674         0.028474
 C         2.498816        -0.939634        -0.320010
 C         3.362767         0.266760        -0.746534
 C         4.907656         0.276448        -1.044787
 O         2.680090         0.851839        -2.024731
 C         1.646908         1.198061        -0.934487
 C         2.720669         1.346960         0.142043
 O         1.846242         0.637601         1.052081
 H        -0.261841        -1.552799         0.777469
 H        -0.853471         0.008723         0.415733
 H        -0.378303        -0.881685        -0.940834
 H         2.773778        -1.436728         0.567655
 H         2.258421        -1.682937        -1.203924
 H         5.145858         1.256201        -1.612609
 H         5.508089         0.267720        -0.150444
 H         5.189422        -0.596237        -1.677913
 H         0.883207         1.933410        -1.223162
 H         3.430691         2.003063         0.636620
