19
Iteration:  4017charge 0 multiplicity 1
 C        -0.024058        -0.757903         0.265053
 C         1.270534        -0.043665        -0.119733
 C         2.445018        -0.895059        -0.536825
 C         3.377882         0.294713        -0.768992
 C         4.902710         0.177163        -0.905164
 O         2.694030         0.912947        -1.906205
 C         1.634107         1.340614        -1.030781
 C         2.668247         1.348561         0.084053
 O         1.883843         0.595999         1.090066
 H         0.228403        -1.389101         1.001025
 H        -0.645826         0.088367         0.643366
 H        -0.372529        -0.988733        -0.710655
 H         2.730817        -1.592485         0.259480
 H         2.164240        -1.447113        -1.413205
 H         5.329871         0.989151        -1.374491
 H         5.394408        -0.008646         0.009235
 H         5.061766        -0.640544        -1.578365
 H         0.825823         2.021253        -1.243786
 H         3.087816         2.088136         0.699447
