19
Iteration:  3298charge 0 multiplicity 1
 C        -0.025734        -0.686557         0.207905
 C         1.277450        -0.048348        -0.084421
 C         2.503969        -0.967656        -0.549345
 C         3.329206         0.296491        -0.829459
 C         4.849173         0.137436        -0.870593
 O         2.649327         0.987395        -2.026140
 C         1.677799         1.309997        -0.966025
 C         2.681186         1.315456         0.161309
 O         1.923870         0.613487         1.136972
 H         0.179149        -1.386718         1.004076
 H        -0.849852        -0.028993         0.495400
 H        -0.386702        -1.379966        -0.609322
 H         2.725594        -1.358183         0.388698
 H         2.390379        -1.629102        -1.390131
 H         5.294222         1.111339        -1.255278
 H         5.195501        -0.086533         0.075029
 H         5.154843        -0.567565        -1.587527
 H         0.831636         2.020451        -1.244057
 H         3.122512         2.248481         0.600138
