19
Iteration:  4248charge 0 multiplicity 1
 C        -0.114387        -0.614211         0.036373
 C         1.342289        -0.166184        -0.005933
 C         2.595872        -0.972537        -0.388005
 C         3.365443         0.298160        -0.858079
 C         4.973395         0.270146        -1.108020
 O         2.588581         0.856401        -1.905573
 C         1.685928         1.227852        -0.881928
 C         2.649777         1.348131         0.194349
 O         1.811520         0.650832         1.137839
 H        -0.461926        -1.174549         0.882328
 H        -0.778359         0.280541         0.122441
 H        -0.487157        -1.114341        -0.875315
 H         2.975459        -1.357095         0.584258
 H         2.474361        -1.773770        -1.163315
 H         5.465868         1.039845        -1.828463
 H         5.275801         0.418143        -0.128386
 H         5.225099        -0.747045        -1.390252
 H         1.004754         2.137377        -1.142298
 H         3.264985         2.309057         0.449066
