19
Iteration:  1597
 C        -0.091123        -0.769064         0.226712
 C         1.259774        -0.053842        -0.035762
 C         2.491432        -0.919082        -0.506115
 C         3.399763         0.307339        -0.817401
 C         4.886212         0.159849        -0.980105
 O         2.682416         0.884601        -1.913672
 C         1.683486         1.240069        -0.938294
 C         2.720383         1.375629         0.163310
 O         1.833470         0.763335         1.021425
 H        -0.079011        -1.661623         0.924447
 H        -0.938255        -0.071800         0.500210
 H        -0.313027        -1.301532        -0.657860
 H         2.898957        -1.498153         0.518660
 H         2.429885        -1.669302        -1.236583
 H         5.242428         1.132885        -1.219857
 H         5.418045        -0.246118        -0.131414
 H         5.154478        -0.477034        -1.880678
 H         0.826034         1.911110        -1.336809
 H         3.249719         2.267588         0.533686
