19
Iteration:  1247
 C        -0.106809        -0.639086         0.176493
 C         1.282672        -0.103301         0.042944
 C         2.512878        -1.007609        -0.417377
 C         3.424307         0.302965        -0.752492
 C         4.872610         0.239678        -1.057571
 O         2.658850         0.844211        -1.950183
 C         1.664450         1.216498        -1.037514
 C         2.633761         1.403354         0.197067
 O         1.912084         0.680552         1.091836
 H        -0.569055        -1.206810         1.023569
 H        -0.756004         0.153601        -0.091857
 H        -0.143774        -1.337879        -0.689040
 H         2.841189        -1.738455         0.382517
 H         2.367996        -1.507083        -1.316340
 H         5.462866         1.245172        -0.869747
 H         5.214173        -0.487324        -0.339948
 H         5.073725        -0.069711        -2.167988
 H         1.129106         2.150838        -1.456952
 H         3.182355         2.285653         0.534320
