19
Iteration:   146
 C        -0.022191        -0.637627         0.161518
 C         1.322130        -0.098700        -0.065056
 C         2.470979        -0.974789        -0.523004
 C         3.392942         0.272703        -0.849952
 C         4.905932         0.209312        -0.924668
 O         2.716912         0.967216        -1.977184
 C         1.655543         1.226248        -0.908082
 C         2.562780         1.330215         0.165186
 O         1.852317         0.613237         1.119031
 H         0.077273        -1.426838         0.896260
 H        -0.736359         0.087903         0.648396
 H        -0.607930        -1.102182        -0.554782
 H         3.008908        -1.593722         0.192267
 H         2.209915        -1.434077        -1.454067
 H         5.195900         0.336023        -1.937949
 H         5.198452         1.166588        -0.366264
 H         5.522408        -0.555635        -0.575838
 H         0.801842         1.860977        -1.240970
 H         3.108629         2.279462         0.537650
