19
Iteration:  3915charge 0 multiplicity 1
 C        -0.079506        -0.663636        -0.032148
 C         1.327273        -0.042094         0.022777
 C         2.531966        -0.979270        -0.399855
 C         3.413166         0.269494        -0.763588
 C         4.951560         0.166665        -1.175161
 O         2.597661         0.909570        -1.918225
 C         1.685733         1.198584        -0.904184
 C         2.692576         1.380394         0.258143
 O         1.771275         0.708999         1.166021
 H         0.098999        -1.370638         0.757905
 H        -0.766533         0.073895         0.217214
 H        -0.194428        -1.253568        -0.938622
 H         2.767454        -1.514240         0.545089
 H         2.151218        -1.421379        -1.388956
 H         5.488154         1.075663        -1.224490
 H         5.670673        -0.438932        -0.574533
 H         4.915201        -0.434162        -2.030555
 H         0.889995         1.964783        -0.982668
 H         3.141499         2.298976         0.677874
