19
Iteration:   715
 C        -0.046932        -0.703545         0.026865
 C         1.326480         0.049628        -0.014490
 C         2.543532        -0.840995        -0.378548
 C         3.414847         0.278384        -0.732131
 C         4.839363         0.138164        -1.153962
 O         2.673982         0.881573        -1.896475
 C         1.643107         1.251062        -0.895306
 C         2.690341         1.257039         0.193438
 O         1.773690         0.672989         1.183007
 H        -0.155146        -1.507229         0.805848
 H        -0.984985        -0.259507        -0.113449
 H         0.119446        -1.103262        -1.056561
 H         3.020776        -1.477598         0.400976
 H         2.308901        -1.377389        -1.374582
 H         5.264327         1.108327        -1.333458
 H         5.587849        -0.420557        -0.501823
 H         4.931380        -0.215911        -2.182854
 H         0.893469         1.999781        -1.252685
 H         3.261360         2.062879         0.576746
