19
Iteration:   758
 C        -0.123706        -0.558110         0.137001
 C         1.285384        -0.069350        -0.035360
 C         2.614981        -0.884427        -0.497739
 C         3.372056         0.322877        -0.787006
 C         4.945734         0.185334        -0.973922
 O         2.612886         0.906164        -1.929136
 C         1.626341         1.200076        -0.992282
 C         2.673489         1.324105         0.138745
 O         1.863893         0.531606         1.147162
 H         0.058067        -1.476947         0.772887
 H        -0.666389         0.189791         0.614272
 H        -0.677044        -0.851891        -0.846657
 H         2.864376        -1.343627         0.434582
 H         2.531549        -1.453090        -1.486091
 H         5.359838         1.092241        -1.423404
 H         5.321846        -0.076517         0.047696
 H         5.223247        -0.612513        -1.672279
 H         0.843789         1.929900        -1.297020
 H         3.122193         2.184490         0.583996
