19
Iteration:  2458charge 0 multiplicity 1
 C        -0.163823        -0.575707         0.236555
 C         1.286227        -0.031758        -0.129682
 C         2.529653        -0.977581        -0.465778
 C         3.392732         0.210717        -0.840735
 C         4.935569         0.236251        -0.951547
 O         2.663247         0.894521        -1.945807
 C         1.615191         1.265423        -0.910431
 C         2.661310         1.338726         0.137309
 O         1.962773         0.585507         1.049994
 H        -0.344504        -1.688472         0.634965
 H        -0.772186         0.070979         0.891659
 H        -0.798015        -0.506207        -0.712468
 H         2.883097        -1.642714         0.419753
 H         2.393223        -1.571192        -1.314935
 H         5.239934         1.294568        -1.091680
 H         5.258618        -0.240957         0.027944
 H         5.343689        -0.360725        -1.728065
 H         0.869538         1.952263        -1.166312
 H         3.176662         2.252163         0.546330
