19
Iteration:   997charge 0 multiplicity 1
 C        -0.021906        -0.677335         0.133585
 C         1.257277        -0.077882        -0.079889
 C         2.453688        -0.934439        -0.457918
 C         3.401996         0.289295        -0.728700
 C         4.900441         0.147069        -0.934189
 O         2.620454         0.952237        -2.024884
 C         1.666319         1.239384        -0.967104
 C         2.672809         1.315824         0.142334
 O         1.925234         0.684746         1.137396
 H         0.108580        -1.573146         0.770765
 H        -0.719065        -0.122856         0.703581
 H        -0.646052        -0.953419        -0.751220
 H         2.778440        -1.505161         0.442826
 H         2.302149        -1.479305        -1.419186
 H         5.203719         1.116195        -1.477157
 H         5.551302         0.044144         0.013043
 H         5.148587        -0.732630        -1.577290
 H         0.907308         2.004072        -1.256227
 H         3.011207         2.226490         0.539521
