19
Iteration:  2214
 C        -0.074973        -0.678871        -0.033271
 C         1.264681        -0.056713        -0.061936
 C         2.588571        -0.892827        -0.435061
 C         3.409750         0.295121        -0.795426
 C         4.915517         0.057785        -1.203469
 O         2.581780         0.868524        -1.851303
 C         1.678992         1.355072        -0.842045
 C         2.664687         1.388076         0.291046
 O         1.867954         0.673443         1.211910
 H        -0.045704        -1.485952         0.717904
 H        -1.045661        -0.116729         0.004836
 H         0.000986        -1.295285        -0.916383
 H         2.858579        -1.632859         0.263218
 H         2.355984        -1.371967        -1.519650
 H         5.338312         0.993603        -1.421632
 H         5.540250        -0.348039        -0.478888
 H         4.729520        -0.528242        -2.112623
 H         0.828138         2.129116        -0.985103
 H         3.219487         2.214147         0.742411
