19
Iteration:  1044charge 0 multiplicity 1
 C        -0.033494        -0.679661         0.043515
 C         1.263420        -0.057209        -0.089996
 C         2.561230        -0.919423        -0.321725
 C         3.431075         0.220898        -0.714366
 C         4.865095         0.151786        -1.147255
 O         2.621072         0.950358        -1.934180
 C         1.695282         1.227253        -0.967875
 C         2.652882         1.399510         0.127518
 O         1.830496         0.661377         1.226890
 H        -0.296049        -1.255993         0.989036
 H        -0.807838         0.159735        -0.028725
 H        -0.286300        -1.171775        -0.865163
 H         2.926472        -1.382376         0.631057
 H         2.437571        -1.564120        -1.137932
 H         5.304653         1.108960        -1.195021
 H         5.544799        -0.531434        -0.394368
 H         4.999303        -0.418744        -2.068491
 H         0.749616         1.764222        -1.109371
 H         3.318368         2.225284         0.431922
