19
Iteration:  2965
 C        -0.042901        -0.735136         0.224950
 C         1.296697        -0.045561        -0.000765
 C         2.488378        -0.850981        -0.504676
 C         3.332263         0.319685        -0.803437
 C         4.866790         0.073776        -0.918173
 O         2.676252         0.903019        -1.951423
 C         1.640385         1.215704        -0.969632
 C         2.643508         1.389635         0.086176
 O         1.923742         0.733913         1.047616
 H        -0.028140        -1.235147         1.168779
 H        -0.788265         0.093749         0.247333
 H        -0.163076        -1.333462        -0.638195
 H         2.935652        -1.425665         0.318065
 H         2.220225        -1.498315        -1.427541
 H         5.647545         0.721178        -0.642055
 H         5.180244        -0.649167        -0.122777
 H         5.289877        -0.492281        -1.854047
 H         0.742626         1.760309        -1.267312
 H         3.004667         2.307013         0.390045
