19
Iteration:  1534
 C        -0.168817        -0.624989         0.006107
 C         1.309417        -0.116095        -0.031702
 C         2.522731        -0.958061        -0.397124
 C         3.449603         0.276708        -0.800763
 C         4.933364         0.255754        -1.121582
 O         2.599138         0.788234        -1.899624
 C         1.693865         1.193231        -0.963806
 C         2.643035         1.341042         0.172564
 O         1.900197         0.733240         1.270870
 H        -0.219502        -1.408495         0.744886
 H        -0.845228         0.283654         0.163771
 H        -0.445047        -0.934025        -0.996768
 H         2.933913        -1.465331         0.564263
 H         2.435647        -1.602416        -1.220789
 H         5.159683         1.102420        -1.714043
 H         5.608615         0.461078        -0.182259
 H         5.229083        -0.635221        -1.640872
 H         0.922526         1.879516        -1.295211
 H         2.975773         2.394138         0.371258
