19
Iteration:   439charge 0 multiplicity 1
 C        -0.043091        -0.636767         0.187452
 C         1.302467        -0.096948        -0.055329
 C         2.581080        -0.957336        -0.601534
 C         3.389096         0.305854        -0.716085
 C         4.845488         0.227254        -0.880673
 O         2.607430         0.935301        -1.950558
 C         1.631734         1.266266        -1.021664
 C         2.703215         1.301170         0.150910
 O         1.837508         0.593574         1.102961
 H         0.043815        -1.513611         0.850319
 H        -0.515075         0.005841         0.970741
 H        -0.428634        -0.891739        -0.840612
 H         2.893954        -1.553912         0.299298
 H         2.327913        -1.448096        -1.583049
 H         5.136557         1.152980        -1.451432
 H         5.449517         0.243464         0.083773
 H         5.103305        -0.692043        -1.414177
 H         0.891988         1.976526        -1.406569
 H         3.396371         2.179136         0.383879
