19
Iteration:  3531
 C        -0.095522        -0.567535         0.166764
 C         1.311016        -0.122962        -0.103498
 C         2.590759        -1.011806        -0.570843
 C         3.359621         0.270108        -0.876828
 C         4.872601         0.217787        -0.986803
 O         2.644062         0.925098        -1.913266
 C         1.680975         1.271397        -0.884663
 C         2.637128         1.330055         0.216781
 O         1.863244         0.638522         1.159797
 H        -0.101684        -1.481247         0.854014
 H        -0.862395         0.251361         0.395243
 H        -0.375827        -0.975901        -0.814316
 H         2.805638        -1.730956         0.280763
 H         2.354594        -1.475371        -1.516017
 H         5.352199         1.148844        -1.046159
 H         5.286078        -0.387338        -0.152178
 H         5.385825        -0.225688        -1.854468
 H         0.843560         1.900482        -1.114226
 H         3.258160         2.150336         0.582787
