19
Iteration:  4067charge 0 multiplicity 1
 C        -0.086218        -0.677504        -0.000708
 C         1.293234        -0.070153        -0.012285
 C         2.508643        -0.946784        -0.428285
 C         3.363127         0.339785        -0.752795
 C         4.872396         0.119690        -1.089075
 O         2.673062         0.918731        -1.855147
 C         1.587153         1.196438        -0.886088
 C         2.613372         1.409990         0.142797
 O         1.962086         0.667745         1.145905
 H        -0.114840        -1.341450         0.940016
 H        -0.766678         0.139037         0.019918
 H        -0.028298        -1.110711        -1.028963
 H         2.908599        -1.501173         0.451742
 H         2.433821        -1.664479        -1.314426
 H         5.224615         0.919699        -1.836427
 H         5.510047         0.312577        -0.120207
 H         5.209997        -0.866293        -1.504974
 H         0.797743         1.830404        -1.417470
 H         3.183134         2.279799         0.573453
