19
Iteration:  4518charge 0 multiplicity 1
 C        -0.029203        -0.729811         0.142686
 C         1.350522        -0.100894         0.010417
 C         2.479427        -0.915963        -0.399148
 C         3.396516         0.241357        -0.882945
 C         4.881232         0.146276        -0.975548
 O         2.702224         1.004399        -2.031242
 C         1.615892         1.205368        -0.969207
 C         2.665785         1.373222         0.134569
 O         1.844442         0.678880         1.180772
 H        -0.025393        -1.601448         0.760216
 H        -0.735120         0.051255         0.727731
 H        -0.600846        -0.867172        -0.835667
 H         2.884096        -1.661781         0.294272
 H         2.234896        -1.526875        -1.297627
 H         5.079858         1.272596        -1.241055
 H         5.329597        -0.123945         0.007317
 H         5.110929        -0.602897        -1.757089
 H         0.816046         2.019780        -1.112781
 H         3.184496         2.311408         0.419291
