19
Iteration:  4401charge 0 multiplicity 1
 C        -0.077272        -0.631592         0.058129
 C         1.314030        -0.134047        -0.100249
 C         2.547692        -0.948066        -0.315998
 C         3.363960         0.275466        -0.760178
 C         4.763501         0.290569        -1.076389
 O         2.630968         0.813517        -1.938393
 C         1.734017         1.282442        -0.930083
 C         2.664320         1.375618         0.151237
 O         1.918583         0.609930         1.121786
 H        -0.142811        -1.045640         1.040572
 H        -0.840447         0.165373        -0.015062
 H        -0.446787        -1.349763        -0.694279
 H         2.845548        -1.554250         0.569905
 H         2.487379        -1.613452        -1.242265
 H         5.220819         1.340418        -1.096368
 H         5.377507        -0.179379        -0.326259
 H         5.060865        -0.212947        -2.002278
 H         1.067228         2.182411        -1.102628
 H         3.198383         2.196956         0.705124
