19
Iteration:  3475charge 0 multiplicity 1
 C        -0.086361        -0.653071         0.202937
 C         1.335921        -0.179413        -0.105166
 C         2.452390        -0.907974        -0.632148
 C         3.338577         0.267489        -0.802099
 C         4.865059         0.239651        -0.902274
 O         2.680401         0.995516        -1.926853
 C         1.696065         1.212497        -0.920652
 C         2.705674         1.289744         0.171393
 O         1.924447         0.634446         1.119777
 H        -0.172810        -1.405887         1.029425
 H        -0.579870         0.347391         0.565918
 H        -0.627958        -0.955042        -0.710094
 H         2.655778        -1.798286         0.018708
 H         2.037919        -1.305303        -1.560118
 H         5.258809         1.050818        -1.500700
 H         5.364390         0.303852         0.099901
 H         5.063550        -0.727688        -1.384903
 H         0.806072         1.822103        -1.244751
 H         3.178874         2.197016         0.544312
