19
Iteration:  3292
 C         0.042793        -0.689820         0.181434
 C         1.251510        -0.044006        -0.120862
 C         2.539813        -0.933854        -0.511652
 C         3.340635         0.287639        -0.841207
 C         4.787200         0.149202        -0.907457
 O         2.671011         0.997286        -2.035734
 C         1.615695         1.318201        -0.960648
 C         2.677796         1.265880         0.190544
 O         1.917941         0.635259         1.195726
 H        -0.013295        -1.455081         1.039058
 H        -0.902909        -0.106489         0.333959
 H        -0.311938        -1.213454        -0.688949
 H         2.788942        -1.481342         0.497142
 H         2.472164        -1.680204        -1.348997
 H         5.262752         1.009591        -1.360843
 H         5.346061        -0.082153         0.105192
 H         5.037608        -0.817458        -1.517678
 H         0.960798         2.119743        -1.238222
 H         3.215123         2.190086         0.343363
