19
Iteration:  2230charge 0 multiplicity 1
 C         0.036709        -0.696123        -0.078908
 C         1.360433         0.003713         0.013548
 C         2.542540        -0.908798        -0.415221
 C         3.398754         0.291600        -0.798403
 C         4.740975         0.087435        -1.253011
 O         2.634153         0.915010        -1.928866
 C         1.705699         1.300697        -0.843416
 C         2.706972         1.384758         0.329364
 O         1.764122         0.627293         1.239573
 H        -0.065713        -1.569573         0.590785
 H        -0.658390         0.075548         0.171118
 H        -0.304918        -1.103795        -1.077006
 H         2.989660        -1.335456         0.600168
 H         2.454621        -1.670627        -1.145628
 H         5.258319         1.035556        -1.646256
 H         5.341920        -0.383283        -0.354165
 H         4.783597        -0.717355        -2.029403
 H         1.021863         2.016942        -1.175356
 H         3.241203         2.256472         0.745388
