19
Iteration:  3415charge 0 multiplicity 1
 C        -0.016998        -0.697976        -0.045979
 C         1.320582         0.016662         0.010763
 C         2.572034        -0.962392        -0.376639
 C         3.454482         0.282675        -0.770417
 C         4.793514         0.118218        -1.145466
 O         2.645359         0.966354        -1.859843
 C         1.667783         1.278464        -0.895389
 C         2.696368         1.333234         0.194743
 O         1.794772         0.671153         1.207114
 H        -0.078265        -1.644278         0.534002
 H        -0.900364        -0.138653         0.094278
 H        -0.135264        -1.081258        -1.057622
 H         2.875143        -1.436515         0.575049
 H         2.448571        -1.667384        -1.209264
 H         5.253170         0.966725        -1.638860
 H         5.422477        -0.538836        -0.561714
 H         4.559540        -0.423374        -2.081148
 H         0.816553         1.873784        -1.165413
 H         3.187666         2.307853         0.399483
