19
Iteration:  1793
 C        -0.016271        -0.711887         0.267963
 C         1.319165        -0.073736        -0.160347
 C         2.488520        -0.978929        -0.562847
 C         3.361121         0.242504        -0.840081
 C         4.852128         0.135844        -0.868254
 O         2.643451         0.976061        -1.957393
 C         1.658209         1.253212        -0.948752
 C         2.635319         1.368806         0.134814
 O         1.915737         0.718932         1.072448
 H         0.197120        -1.483043         1.075290
 H        -0.705053         0.061969         0.760492
 H        -0.642148        -1.136420        -0.447957
 H         2.807025        -1.759360         0.219673
 H         2.312536        -1.508598        -1.490666
 H         5.165846         1.149243        -0.942007
 H         5.214898        -0.110987         0.207278
 H         5.446877        -0.513480        -1.595039
 H         0.762608         1.938783        -1.258531
 H         3.258668         2.253154         0.439993
