19
Iteration:  3443
 C        -0.072479        -0.726762         0.090997
 C         1.266197        -0.026803        -0.131326
 C         2.549878        -0.878282        -0.478675
 C         3.441494         0.328360        -0.886377
 C         4.946342         0.104271        -1.113244
 O         2.619108         0.906965        -1.872128
 C         1.716702         1.357442        -0.898143
 C         2.628825         1.388507         0.305771
 O         1.825541         0.580949         1.154661
 H        -0.102604        -1.540737         0.858999
 H        -0.856168         0.021054         0.534915
 H        -0.494588        -1.166340        -0.834772
 H         2.780633        -1.370742         0.507336
 H         2.374337        -1.637177        -1.244912
 H         5.429793         0.927087        -1.670439
 H         5.443680        -0.114217        -0.068152
 H         4.885571        -0.871596        -1.690768
 H         0.892927         2.002839        -1.271099
 H         3.152682         2.223173         0.779709
