19
Iteration:   661charge 0 multiplicity 1
 C        -0.122074        -0.632664         0.143700
 C         1.341722        -0.084025        -0.031800
 C         2.489988        -0.918468        -0.567612
 C         3.397881         0.434441        -0.780569
 C         4.896699         0.206574        -0.992424
 O         2.685945         0.899719        -1.994147
 C         1.662682         1.129465        -0.923730
 C         2.665465         1.322895         0.201198
 O         1.846223         0.606581         1.186156
 H        -0.151100        -1.424158         0.930381
 H        -0.704631         0.257621         0.251815
 H        -0.567146        -1.064730        -0.769979
 H         2.987834        -1.268810         0.336352
 H         2.427687        -1.535278        -1.523409
 H         5.603216         1.016860        -1.068869
 H         5.260928        -0.489900        -0.174561
 H         5.006617        -0.397733        -1.904473
 H         0.960007         1.912967        -1.285572
 H         3.016644         2.229418         0.642349
