19
Iteration:  2368charge 0 multiplicity 1
 C        -0.027074        -0.700710         0.106708
 C         1.294438        -0.048203        -0.088350
 C         2.529231        -0.930584        -0.501441
 C         3.401988         0.298151        -0.798344
 C         4.861721         0.085463        -1.113300
 O         2.664722         0.953870        -1.873166
 C         1.681025         1.321398        -0.904795
 C         2.691874         1.395156         0.269581
 O         1.801358         0.638056         1.162457
 H        -0.093416        -1.166276         1.179112
 H        -0.830467         0.098615        -0.150922
 H        -0.161307        -1.438387        -0.689068
 H         2.815504        -1.562097         0.309070
 H         2.253001        -1.546048        -1.412820
 H         5.359002         0.951286        -1.488638
 H         5.366316        -0.458692        -0.287076
 H         4.912815        -0.697724        -1.943148
 H         0.782304         1.896776        -1.252691
 H         3.283730         2.247044         0.563863
