19
Iteration:  4492charge 0 multiplicity 1
 C        -0.002885        -0.743375         0.196501
 C         1.321796        -0.045736        -0.068072
 C         2.448036        -0.901685        -0.615921
 C         3.397666         0.373101        -0.817911
 C         4.945120         0.132656        -0.922703
 O         2.591382         0.816740        -1.934793
 C         1.625966         1.305312        -0.955557
 C         2.667174         1.440904         0.169694
 O         1.864188         0.665547         1.136006
 H         0.338728        -1.732409         0.605330
 H        -0.683590        -0.355476         0.870238
 H        -0.549206        -0.874174        -0.701290
 H         2.643822        -1.624277         0.199298
 H         2.531355        -1.448186        -1.536618
 H         5.439792         0.783755        -1.600920
 H         5.355369         0.143344         0.153169
 H         4.827287        -0.918465        -1.262374
 H         1.016069         2.141716        -1.209115
 H         3.296092         2.274730         0.517734
