19
Iteration:  2819charge 0 multiplicity 1
 C         0.031931        -0.732979         0.335899
 C         1.287786        -0.042860        -0.055989
 C         2.415073        -0.898558        -0.511815
 C         3.358261         0.299313        -0.762761
 C         4.905186         0.073306        -0.839207
 O         2.678894         0.937433        -2.050274
 C         1.688277         1.235698        -1.043300
 C         2.655832         1.389308         0.088845
 O         1.798002         0.708184         1.063574
 H         0.328761        -1.565914         0.960906
 H        -0.503563        -0.023470         0.911123
 H        -0.555954        -0.998025        -0.573161
 H         2.851523        -1.599029         0.302806
 H         2.303648        -1.499479        -1.428259
 H         5.428063         1.016627        -1.159038
 H         5.539826        -0.268636        -0.032401
 H         4.998030        -0.661660        -1.667572
 H         0.927566         1.987947        -1.393248
 H         3.280563         2.245034         0.408337
