19
Iteration:  1606charge 0 multiplicity 1
 C        -0.024201        -0.778724         0.246944
 C         1.264139        -0.096275        -0.026260
 C         2.475745        -0.904457        -0.488994
 C         3.418291         0.285816        -0.751366
 C         4.882721         0.161697        -0.949841
 O         2.640302         0.886635        -1.940373
 C         1.712263         1.286109        -1.026992
 C         2.696844         1.369999         0.108458
 O         1.788271         0.733166         1.074434
 H         0.175633        -1.525369         1.064208
 H        -0.735993        -0.025604         0.569203
 H        -0.392903        -1.188338        -0.680605
 H         2.857510        -1.603545         0.230254
 H         2.314256        -1.416708        -1.441340
 H         5.381254         1.156978        -1.034260
 H         5.335796        -0.323934        -0.134390
 H         5.057119        -0.431597        -1.917608
 H         1.074146         2.163096        -1.379879
 H         3.304231         2.227035         0.325342
