19
Iteration:  3254
 C        -0.097863        -0.678660         0.030518
 C         1.314480        -0.013055        -0.066451
 C         2.571641        -0.936469        -0.425127
 C         3.489824         0.294434        -0.717092
 C         4.993123         0.090691        -1.199820
 O         2.561984         0.837406        -1.911455
 C         1.650050         1.258703        -0.898048
 C         2.585355         1.452548         0.283382
 O         1.820552         0.666865         1.215615
 H        -0.124781        -1.553433         0.592853
 H        -0.773036         0.117618         0.135685
 H        -0.075687        -0.982918        -1.039308
 H         2.841615        -1.562756         0.367250
 H         2.422884        -1.365802        -1.393847
 H         5.169663         0.736540        -2.096957
 H         5.682538         0.239317        -0.432966
 H         5.041668        -0.884244        -1.603132
 H         0.881813         2.053304        -1.138768
 H         3.072201         2.351985         0.756344
