19
Iteration:  4127charge 0 multiplicity 1
 C        -0.071024        -0.646401         0.099140
 C         1.272448        -0.136654        -0.091951
 C         2.469351        -0.985647        -0.406834
 C         3.414297         0.271818        -0.810349
 C         4.898187         0.273349        -1.018796
 O         2.690511         0.850411        -1.994100
 C         1.650784         1.192392        -0.981945
 C         2.659193         1.367358         0.154712
 O         1.886165         0.701771         1.208772
 H        -0.142680        -1.424500         0.799973
 H        -0.684514         0.189844         0.613495
 H        -0.684099        -0.895528        -0.793198
 H         2.853939        -1.495974         0.527116
 H         2.456201        -1.650646        -1.270912
 H         5.206509         1.339690        -0.869529
 H         5.400415        -0.278791        -0.275357
 H         5.133325        -0.007788        -2.044678
 H         0.861976         1.939966        -0.918260
 H         3.198764         2.245468         0.554308
