19
Iteration:  3751
 C        -0.038878        -0.703809        -0.020535
 C         1.320552        -0.042626        -0.082670
 C         2.492351        -0.865805        -0.332202
 C         3.370730         0.360049        -0.811816
 C         4.902830         0.105649        -1.208133
 O         2.667196         0.921373        -1.875968
 C         1.682873         1.255151        -0.891093
 C         2.645461         1.331131         0.278927
 O         1.850446         0.649558         1.183301
 H        -0.051975        -1.530651         0.781971
 H        -0.864270         0.000084         0.126014
 H        -0.199291        -1.233778        -1.035858
 H         2.928505        -1.259971         0.630910
 H         2.350279        -1.678941        -1.163197
 H         5.413702         1.092476        -1.032292
 H         5.213690        -0.764786        -0.453887
 H         4.752104        -0.302839        -2.226614
 H         0.876370         1.879574        -1.228348
 H         3.132519         2.229365         0.590416
