19
Iteration:  2579charge 0 multiplicity 1
 C        -0.122487        -0.597368         0.010732
 C         1.307634        -0.064692        -0.018947
 C         2.516740        -0.916424        -0.407299
 C         3.416343         0.217521        -0.767587
 C         4.863435         0.217251        -1.216410
 O         2.717713         0.838362        -1.844234
 C         1.694151         1.128055        -0.911568
 C         2.691478         1.419915         0.203714
 O         1.819340         0.700704         1.216612
 H        -0.333318        -1.162285         0.989949
 H        -0.785410         0.234730        -0.069712
 H        -0.531647        -1.181874        -0.853993
 H         3.020580        -1.597954         0.338688
 H         2.245687        -1.597636        -1.118789
 H         5.101268         1.285048        -1.544511
 H         5.502760        -0.327775        -0.498082
 H         4.930734        -0.427344        -2.083756
 H         0.986516         1.804628        -1.345190
 H         3.209102         2.329594         0.616803
