19
Iteration:   201
 C         0.023521        -0.629546         0.004306
 C         1.356793        -0.016010        -0.032962
 C         2.535281        -0.946055        -0.423580
 C         3.416631         0.288071        -0.773113
 C         4.850058         0.213442        -1.150732
 O         2.633303         0.910933        -1.877187
 C         1.661579         1.156728        -0.931587
 C         2.609610         1.321214         0.233212
 O         1.788554         0.657730         1.221731
 H        -0.231233        -1.375084         0.743885
 H        -0.819278         0.069811        -0.022414
 H        -0.028627        -1.175947        -0.932407
 H         2.901840        -1.299301         0.491827
 H         2.453340        -1.690710        -1.254157
 H         5.060821         0.870103        -1.992056
 H         5.490198         0.543802        -0.311972
 H         5.136525        -0.811734        -1.368307
 H         0.841728         1.790970        -1.380265
 H         3.342607         2.163035         0.506950
