19
Iteration:  4347
 C        -0.021159        -0.764422         0.225729
 C         1.319735        -0.084015        -0.093570
 C         2.563392        -0.900655        -0.526192
 C         3.379928         0.298143        -0.687549
 C         4.785181         0.101811        -0.965025
 O         2.666762         0.885713        -1.924172
 C         1.686054         1.266502        -1.045388
 C         2.601280         1.481202         0.144082
 O         1.887046         0.701265         1.078628
 H         0.085750        -1.537087         0.976851
 H        -0.811741        -0.146760         0.606827
 H        -0.520047        -1.116847        -0.688208
 H         2.947602        -1.470684         0.355044
 H         2.631388        -1.574305        -1.451123
 H         5.436217         1.029859        -0.709663
 H         5.193292        -0.774852        -0.461104
 H         4.799741         0.053713        -2.068566
 H         0.824791         1.907980        -1.452451
 H         3.123484         2.295438         0.882890
