19
Iteration:  4988
 C        -0.063583        -0.687609         0.177109
 C         1.303698        -0.075382        -0.053313
 C         2.448101        -0.884228        -0.550848
 C         3.364632         0.295487        -0.776715
 C         4.814325         0.194095        -0.996217
 O         2.731040         0.951893        -1.961692
 C         1.736442         1.189740        -0.962150
 C         2.724033         1.411662         0.249065
 O         1.848539         0.567887         1.103249
 H        -0.294306        -1.111254         1.214656
 H        -0.842001         0.091979         0.082399
 H        -0.470892        -1.413094        -0.555198
 H         2.903799        -1.519662         0.225440
 H         2.311075        -1.483767        -1.444317
 H         5.208081         1.164785        -1.086873
 H         5.292227        -0.395188        -0.214964
 H         4.838804        -0.325946        -1.971720
 H         0.944372         1.959840        -1.111820
 H         3.252530         2.226812         0.642439
