19
Iteration:  1160
 C        -0.064662        -0.674625         0.190881
 C         1.331572        -0.098213        -0.064387
 C         2.537020        -0.907723        -0.564868
 C         3.408901         0.357337        -0.846165
 C         4.863186         0.129599        -0.905457
 O         2.623793         0.810667        -1.984646
 C         1.633920         1.232724        -0.936429
 C         2.675039         1.458303         0.182531
 O         1.836686         0.681865         1.146089
 H         0.099931        -1.630584         0.771222
 H        -0.625910        -0.008286         0.788579
 H        -0.610912        -0.712351        -0.768410
 H         3.137964        -1.610813         0.152069
 H         2.357234        -1.417186        -1.502940
 H         5.360198         0.912694        -1.550579
 H         5.372313         0.099673        -0.001793
 H         5.101317        -0.892495        -1.313396
 H         0.853025         1.986755        -1.349666
 H         3.305915         2.260477         0.606630
