19
Iteration:  3762charge 0 multiplicity 1
 C         0.027681        -0.643183        -0.015841
 C         1.311167        -0.000208        -0.039332
 C         2.536822        -0.929058        -0.434741
 C         3.425075         0.271624        -0.751972
 C         4.830324         0.148132        -1.201892
 O         2.668239         0.871255        -1.847549
 C         1.614899         1.242214        -0.881482
 C         2.642664         1.464703         0.270202
 O         1.807745         0.606847         1.161554
 H        -0.008935        -1.397976         0.856736
 H        -0.764471         0.079872         0.227041
 H        -0.290013        -1.179934        -0.977338
 H         2.633737        -1.500294         0.527452
 H         2.356436        -1.744271        -1.270820
 H         5.636010         0.944356        -1.141087
 H         5.448018        -0.679352        -0.584669
 H         5.065447        -0.190305        -2.241135
 H         0.896579         1.868107        -1.358145
 H         3.088584         2.339652         0.696635
