19
Iteration:   961
 C        -0.094183        -0.613508         0.260592
 C         1.306841        -0.098161        -0.049264
 C         2.545242        -0.916048        -0.544161
 C         3.399698         0.292338        -0.786246
 C         4.885981         0.212489        -0.828445
 O         2.595995         0.892604        -2.068901
 C         1.697275         1.271140        -1.042936
 C         2.638866         1.290548         0.175018
 O         1.883084         0.597907         1.108920
 H        -0.079038        -1.521896         0.826954
 H        -0.441047         0.223416         0.937630
 H        -0.622883        -0.655986        -0.733225
 H         3.049971        -1.653066         0.062769
 H         2.470123        -1.478627        -1.594549
 H         5.326875         1.136426        -1.463134
 H         5.303341         0.210690         0.104940
 H         5.167373        -0.743745        -1.415646
 H         0.833824         1.960242        -1.152578
 H         3.109941         2.240840         0.655314
