19
Iteration:  3814charge 0 multiplicity 1
 C        -0.085880        -0.558635         0.175169
 C         1.250634        -0.060107        -0.088174
 C         2.487242        -0.982840        -0.481226
 C         3.377517         0.228384        -0.829181
 C         4.908652         0.242960        -0.913249
 O         2.637527         0.957671        -1.963292
 C         1.665516         1.283593        -0.955628
 C         2.639928         1.301010         0.183058
 O         1.947056         0.520671         1.079895
 H         0.012134        -1.409553         0.887854
 H        -0.754580         0.114610         0.681277
 H        -0.434294        -0.946171        -0.736016
 H         2.834333        -1.425185         0.473047
 H         2.225933        -1.688388        -1.297763
 H         5.227439         1.236903        -1.286313
 H         5.359553        -0.127826        -0.032805
 H         5.521371        -0.194946        -1.696571
 H         0.901547         1.953221        -1.284776
 H         3.172231         2.213311         0.422511
