19
Iteration:  4606
 C        -0.109269        -0.712060         0.134541
 C         1.280103        -0.038174        -0.106503
 C         2.572767        -0.958243        -0.412858
 C         3.383104         0.335431        -0.781127
 C         4.862307         0.221806        -0.989229
 O         2.595040         0.891441        -1.974392
 C         1.693212         1.275332        -0.929607
 C         2.721153         1.295994         0.166712
 O         1.878613         0.650616         1.139048
 H        -0.133745        -1.115672         1.096266
 H        -0.824757         0.117814        -0.120747
 H        -0.233048        -1.554221        -0.597563
 H         2.710025        -1.467072         0.540201
 H         2.501213        -1.614354        -1.302496
 H         5.652089         1.051541        -0.884795
 H         5.217431        -0.684009        -0.506595
 H         4.890984        -0.069519        -2.069550
 H         1.118847         2.182288        -1.162317
 H         3.023675         2.276259         0.480575
