19
Iteration:  3750
 C        -0.047992        -0.709550        -0.022072
 C         1.313801        -0.051951        -0.084170
 C         2.492934        -0.862953        -0.325451
 C         3.382655         0.360354        -0.813029
 C         4.901700         0.097554        -1.198582
 O         2.662294         0.927720        -1.880692
 C         1.686798         1.259843        -0.900270
 C         2.648466         1.323506         0.274132
 O         1.851740         0.653177         1.187874
 H        -0.057939        -1.532597         0.775252
 H        -0.867882        -0.001846         0.135141
 H        -0.165210        -1.222716        -1.016900
 H         2.967648        -1.246383         0.633141
 H         2.358708        -1.657921        -1.166800
 H         5.394731         1.131111        -1.056704
 H         5.191254        -0.761641        -0.461511
 H         4.742086        -0.290711        -2.242464
 H         0.866427         1.900227        -1.185361
 H         3.149969         2.228147         0.600612
