19
Iteration:   270
 C        -0.031128        -0.677455         0.235935
 C         1.293022        -0.164718        -0.020223
 C         2.555257        -0.940070        -0.571832
 C         3.381953         0.283032        -0.813680
 C         4.860106         0.201614        -0.886420
 O         2.643593         0.935526        -1.954525
 C         1.701154         1.242762        -1.024967
 C         2.653801         1.415028         0.110604
 O         1.829491         0.659462         1.126527
 H        -0.026195        -1.567643         0.879819
 H        -0.686023        -0.031922         0.736174
 H        -0.516053        -1.053550        -0.705591
 H         2.936395        -1.520676         0.263051
 H         2.418665        -1.561429        -1.481633
 H         5.301132         1.107138        -0.438370
 H         5.221561        -0.625464        -0.353812
 H         5.247791         0.092620        -1.952073
 H         0.814720         1.793260        -1.306486
 H         3.091173         2.364232         0.341074
