19
Iteration:  1981charge 0 multiplicity 1
 C        -0.007859        -0.555096         0.249681
 C         1.366845        -0.134130        -0.095683
 C         2.400671        -1.034814        -0.668992
 C         3.350771         0.214119        -0.885382
 C         4.825907         0.229112        -0.851322
 O         2.695626         0.977042        -1.977451
 C         1.630045         1.292883        -0.944600
 C         2.636983         1.415023         0.127972
 O         1.956629         0.516286         1.167425
 H         0.147430        -1.106005         1.172214
 H        -0.503450         0.306028         0.585869
 H        -0.505542        -1.144803        -0.534486
 H         2.742556        -1.724833         0.240277
 H         2.021129        -1.650326        -1.445385
 H         5.132351         1.293983        -0.831502
 H         5.253262        -0.109238         0.099759
 H         5.231049        -0.272829        -1.646364
 H         0.845328         1.900684        -1.282843
 H         3.106951         2.320346         0.504036
