19
Iteration:  1506charge 0 multiplicity 1
 C        -0.071830        -0.636403         0.164836
 C         1.302048        -0.025950        -0.100676
 C         2.521754        -0.951403        -0.355919
 C         3.385716         0.251765        -0.833110
 C         4.809913         0.238985        -0.986635
 O         2.645083         0.849246        -1.924539
 C         1.696285         1.244356        -1.011168
 C         2.728651         1.321813         0.130956
 O         1.832928         0.664081         1.114897
 H         0.319852        -1.456848         0.785798
 H        -0.753329         0.002015         0.685303
 H        -0.475843        -1.099397        -0.788523
 H         2.887200        -1.483393         0.478278
 H         2.476125        -1.629174        -1.315895
 H         5.142268         1.264476        -1.371275
 H         5.269598         0.103888        -0.021390
 H         5.210325        -0.508905        -1.691696
 H         0.885839         1.902877        -1.328571
 H         3.258967         2.208591         0.510560
