19
Iteration:  3310charge 0 multiplicity 1
 C        -0.077575        -0.706084         0.273807
 C         1.302312        -0.064629        -0.098661
 C         2.425345        -0.898861        -0.547236
 C         3.441633         0.293138        -0.853659
 C         4.905038         0.186131        -0.878892
 O         2.616529         0.926907        -1.928063
 C         1.676746         1.264740        -0.975891
 C         2.684811         1.409750         0.156821
 O         1.889182         0.565550         1.021360
 H         0.080756        -1.277402         1.132429
 H        -0.788737         0.085051         0.629016
 H        -0.526517        -1.266574        -0.566905
 H         2.862809        -1.620562         0.028822
 H         2.206951        -1.458024        -1.452670
 H         5.407005         1.220269        -0.846859
 H         5.168595        -0.240513         0.033392
 H         5.324211        -0.501611        -1.566791
 H         0.865098         2.013127        -1.283418
 H         3.350682         2.192815         0.565890
