19
Iteration:  2190
 C        -0.069231        -0.647737         0.103335
 C         1.298540        -0.093415        -0.009642
 C         2.437414        -0.939520        -0.509600
 C         3.356009         0.336406        -0.808984
 C         4.876448         0.146607        -1.075204
 O         2.698139         0.989427        -1.957784
 C         1.642976         1.264593        -0.902201
 C         2.754930         1.340957         0.184149
 O         1.885977         0.557006         1.196985
 H        -0.196841        -1.208781         1.031856
 H        -0.805822         0.167268         0.087135
 H        -0.258474        -1.391999        -0.758776
 H         2.856821        -1.533021         0.303469
 H         2.176973        -1.539707        -1.392528
 H         5.331943         1.169200        -0.977899
 H         5.376124        -0.329458        -0.278779
 H         4.961445        -0.312364        -2.030390
 H         0.755280         1.883946        -1.054741
 H         3.238399         2.293826         0.552907
