19
Iteration:  4323
 C         0.000971        -0.758457         0.230505
 C         1.293608        -0.054603        -0.088184
 C         2.473377        -0.863100        -0.403316
 C         3.414261         0.307979        -0.857543
 C         4.907946         0.146410        -0.970687
 O         2.688237         0.956168        -1.976152
 C         1.674556         1.229582        -0.997655
 C         2.674019         1.347030         0.102495
 O         1.780098         0.631948         1.111764
 H         0.140501        -1.602206         0.804895
 H        -0.690113        -0.106971         0.868240
 H        -0.656377        -0.943211        -0.632670
 H         2.819726        -1.364343         0.554809
 H         2.287384        -1.658998        -1.196182
 H         5.511302         1.150604        -0.809021
 H         5.163357        -0.528780        -0.173960
 H         5.202363        -0.231746        -1.972375
 H         0.885037         2.036611        -1.225637
 H         2.922564         2.418454         0.506144
