19
Iteration:   373
 C        -0.015831        -0.684707        -0.077450
 C         1.336660        -0.147118        -0.089584
 C         2.576257        -0.897947        -0.373396
 C         3.379704         0.350860        -0.772638
 C         4.811757         0.159381        -1.162798
 O         2.606634         0.868452        -1.838477
 C         1.697950         1.199163        -0.921591
 C         2.722203         1.472990         0.238776
 O         1.788961         0.656413         1.195254
 H        -0.136850        -1.334048         0.823599
 H        -0.805086         0.140620         0.168199
 H        -0.318703        -1.291316        -0.945817
 H         3.003265        -1.534058         0.506245
 H         2.547519        -1.660988        -1.143587
 H         5.197681         1.162208        -1.370902
 H         5.568771        -0.150814        -0.306724
 H         4.841088        -0.623777        -1.908706
 H         0.897422         1.885245        -1.240422
 H         3.111565         2.415199         0.708647
