19
Iteration:  3280
 C        -0.037365        -0.751495         0.072991
 C         1.335026        -0.047922        -0.090509
 C         2.508015        -0.859826        -0.436755
 C         3.354081         0.316983        -0.825028
 C         4.809044         0.094799        -1.030673
 O         2.653047         0.965564        -1.911147
 C         1.636324         1.256458        -0.929551
 C         2.684428         1.333591         0.148084
 O         1.882324         0.659471         1.196990
 H         0.048042        -1.459541         0.905841
 H        -0.699049         0.135565         0.252336
 H        -0.135872        -1.265105        -0.851680
 H         3.028028        -1.404902         0.388233
 H         2.320604        -1.530957        -1.312709
 H         5.294974         0.848289        -1.712891
 H         5.203220         0.195062         0.043072
 H         4.994716        -0.938090        -1.480801
 H         0.895704         2.050632        -1.114960
 H         3.348994         2.098453         0.498805
