19
Iteration:  2518
 C        -0.021506        -0.712113         0.178229
 C         1.262687        -0.035263        -0.063554
 C         2.439395        -0.930617        -0.504864
 C         3.438925         0.268225        -0.778838
 C         4.911181         0.096472        -0.939092
 O         2.601765         0.992015        -1.944686
 C         1.633152         1.250519        -0.983271
 C         2.681049         1.332080         0.153595
 O         1.923286         0.688021         1.109294
 H        -0.044031        -1.251581         1.084256
 H        -0.797161         0.090768         0.151112
 H        -0.151835        -1.400771        -0.669308
 H         2.740360        -1.564046         0.293519
 H         2.135562        -1.497389        -1.495709
 H         5.500597         0.958357        -1.226268
 H         5.375649        -0.240650        -0.045074
 H         4.947660        -0.728711        -1.728895
 H         0.895957         2.129406        -1.038157
 H         3.201080         2.234245         0.383343
