19
Iteration:  1421
 C        -0.015639        -0.627887         0.195136
 C         1.274875        -0.001931        -0.046260
 C         2.524046        -0.849474        -0.479281
 C         3.437605         0.277985        -0.784729
 C         4.940536         0.218835        -0.995924
 O         2.583551         0.764696        -1.911002
 C         1.692828         1.197266        -0.987801
 C         2.685591         1.326834         0.149467
 O         1.796014         0.673874         1.072575
 H        -0.144077        -1.355808         1.046677
 H        -0.936784        -0.082562         0.227836
 H        -0.327678        -1.219407        -0.681856
 H         2.763428        -1.333068         0.509397
 H         2.558489        -1.626853        -1.297672
 H         5.331923         1.295387        -1.022898
 H         5.330791        -0.356526        -0.234006
 H         5.048202        -0.282869        -2.005170
 H         1.000360         2.083295        -1.182081
 H         3.165395         2.195856         0.534941
