19
Iteration:  1542
 C        -0.137364        -0.558734        -0.063054
 C         1.303423        -0.071999        -0.068833
 C         2.638243        -0.962544        -0.385132
 C         3.378680         0.292927        -0.808195
 C         4.906132         0.228349        -1.144104
 O         2.601285         0.756876        -1.854509
 C         1.665852         1.127789        -0.890371
 C         2.631221         1.420970         0.185114
 O         1.895407         0.723837         1.255555
 H        -0.209638        -1.256196         0.805537
 H        -0.926161         0.136919         0.258271
 H        -0.514581        -1.082308        -0.921661
 H         3.033666        -1.720483         0.473513
 H         2.500411        -1.464588        -1.341718
 H         5.145389         1.078740        -1.769026
 H         5.369521         0.360631        -0.214429
 H         5.342191        -0.701194        -1.606203
 H         0.837295         1.768889        -1.353899
 H         3.183736         2.301090         0.446829
