19
Iteration:  1632charge 0 multiplicity 1
 C         0.048405        -0.683393         0.335602
 C         1.285494        -0.027242        -0.108205
 C         2.430069        -0.888287        -0.606637
 C         3.386117         0.337595        -0.858101
 C         4.865792         0.118696        -0.846332
 O         2.713960         0.855179        -2.009319
 C         1.633401         1.188281        -1.026510
 C         2.590300         1.454287         0.217210
 O         1.865242         0.643566         1.075000
 H         0.410709        -1.388469         1.092850
 H        -0.703034        -0.006542         0.854262
 H        -0.371500        -1.110028        -0.585804
 H         2.829518        -1.484313         0.398006
 H         2.317457        -1.504439        -1.488666
 H         5.343299         1.041278        -0.640674
 H         5.206674        -0.649434        -0.054675
 H         5.162785        -0.173381        -1.815685
 H         0.870660         1.749189        -1.562729
 H         3.132554         2.385201         0.548111
