19
Iteration:  3806
 C        -0.124506        -0.572581         0.197637
 C         1.313550        -0.026798        -0.081632
 C         2.478969        -0.960754        -0.464946
 C         3.359393         0.245833        -0.876320
 C         4.935131         0.257384        -0.997270
 O         2.687540         0.952556        -1.931323
 C         1.665680         1.229123        -0.927352
 C         2.668047         1.311917         0.142192
 O         1.880878         0.537185         1.123360
 H        -0.122117        -1.504590         0.829688
 H        -0.933571         0.069631         0.516145
 H        -0.571451        -0.965118        -0.771855
 H         2.858480        -1.530878         0.402645
 H         2.335831        -1.760832        -1.309742
 H         5.270880         1.313826        -0.918615
 H         5.451271        -0.117593         0.011493
 H         5.335368        -0.369643        -1.858943
 H         0.900149         1.871903        -1.282077
 H         3.169985         2.183696         0.487544
