19
Iteration:  4016charge 0 multiplicity 1
 C        -0.022724        -0.754835         0.266030
 C         1.272234        -0.046946        -0.104576
 C         2.434303        -0.897469        -0.534179
 C         3.377302         0.299617        -0.762064
 C         4.892037         0.180209        -0.908294
 O         2.701206         0.917944        -1.910989
 C         1.645404         1.333165        -1.032938
 C         2.660043         1.344534         0.074550
 O         1.885590         0.591671         1.088723
 H         0.228006        -1.411289         1.028395
 H        -0.627393         0.093660         0.635925
 H        -0.396181        -0.975458        -0.728046
 H         2.765985        -1.605075         0.283263
 H         2.127883        -1.443038        -1.465275
 H         5.336048         1.019005        -1.336049
 H         5.441782        -0.015723         0.027680
 H         5.057685        -0.621883        -1.597116
 H         0.822616         2.047443        -1.288171
 H         3.095479         2.095319         0.698616
