19
Iteration:  4473charge 0 multiplicity 1
 C         0.047799        -0.707821         0.183252
 C         1.290143         0.020824        -0.093959
 C         2.475485        -0.801702        -0.444813
 C         3.411376         0.285591        -0.793278
 C         4.829997         0.089980        -0.947784
 O         2.615491         0.931197        -2.011733
 C         1.656281         1.259398        -0.988152
 C         2.627022         1.334947         0.199583
 O         1.900487         0.556449         1.088176
 H         0.258042        -1.619645         0.710433
 H        -0.657435        -0.083764         0.931645
 H        -0.670295        -0.864549        -0.679662
 H         2.901334        -1.418358         0.355291
 H         2.259038        -1.416206        -1.316049
 H         5.290479         0.930369        -1.573808
 H         5.409373         0.457335        -0.026437
 H         5.365052        -0.865381        -1.037217
 H         0.785339         1.871618        -1.397587
 H         3.087738         2.266887         0.514342
