19
Iteration:  3639
 C        -0.057591        -0.595338         0.133263
 C         1.303012        -0.070334        -0.049589
 C         2.475630        -0.950517        -0.546949
 C         3.437252         0.354563        -0.795598
 C         4.836027         0.255600        -0.942323
 O         2.620727         0.875187        -1.961896
 C         1.644138         1.272314        -0.985790
 C         2.688700         1.310011         0.256774
 O         1.913372         0.520994         1.100165
 H        -0.028205        -1.410634         0.894898
 H        -0.682073         0.251756         0.540720
 H        -0.551639        -0.868863        -0.752034
 H         2.783237        -1.772985         0.173048
 H         2.406359        -1.510778        -1.484290
 H         5.346536         1.182668        -1.309492
 H         5.273754         0.088714         0.029435
 H         5.123817        -0.609251        -1.586844
 H         0.922109         2.067666        -1.195635
 H         3.277411         2.158868         0.726725
