19
Iteration:  2247
 C        -0.057454        -0.653126        -0.019610
 C         1.316905        -0.056471        -0.091328
 C         2.546996        -0.907416        -0.291221
 C         3.392802         0.326337        -0.789302
 C         4.860772         0.073350        -1.227842
 O         2.636963         0.991764        -1.844650
 C         1.646179         1.251479        -0.833208
 C         2.686257         1.278479         0.234189
 O         1.840680         0.655965         1.139805
 H         0.042620        -1.609960         0.524560
 H        -0.920841        -0.074085         0.440677
 H        -0.188810        -0.707979        -1.089501
 H         2.983940        -1.340640         0.538839
 H         2.317957        -1.690415        -1.153818
 H         5.191152         0.960947        -1.681583
 H         5.521679        -0.229929        -0.485035
 H         5.076459        -0.634610        -2.056088
 H         0.735622         1.935196        -1.065794
 H         3.229709         2.117584         0.623882
