19
Iteration:  2291charge 0 multiplicity 1
 C         0.000089        -0.537862         0.164740
 C         1.319330        -0.043342        -0.031220
 C         2.467202        -0.959061        -0.594439
 C         3.357538         0.255103        -0.787135
 C         4.871490         0.254587        -0.929147
 O         2.659835         0.901304        -1.956643
 C         1.563790         1.213026        -0.930603
 C         2.744416         1.302915         0.171242
 O         1.885583         0.563133         1.095002
 H         0.108602        -1.427171         0.841881
 H        -0.500455         0.125027         0.963679
 H        -0.582602        -0.606217        -0.740651
 H         2.677737        -1.658144         0.134186
 H         2.339551        -1.503167        -1.625974
 H         5.227044         1.209343        -1.201920
 H         5.235534        -0.141751        -0.004771
 H         5.164509        -0.446456        -1.755473
 H         0.741949         1.989168        -1.190351
 H         3.319273         2.036646         0.690155
