19
Iteration:  1094charge 0 multiplicity 1
 C        -0.005483        -0.585731         0.186249
 C         1.293726        -0.049140         0.009536
 C         2.523383        -0.987696        -0.536394
 C         3.427588         0.297383        -0.741327
 C         4.961866         0.183687        -0.943106
 O         2.583836         0.844408        -1.977256
 C         1.618629         1.221477        -1.008826
 C         2.673174         1.378954         0.161825
 O         1.819117         0.651599         1.103846
 H         0.001499        -1.201981         1.119926
 H        -0.793989         0.089840         0.312409
 H        -0.241556        -1.231224        -0.707289
 H         2.775852        -1.682640         0.327026
 H         2.248229        -1.488894        -1.493930
 H         5.303477         1.230589        -1.054804
 H         5.643974        -0.347196        -0.412828
 H         5.001960        -0.202755        -1.975169
 H         0.835615         2.007578        -1.175432
 H         3.203324         2.217802         0.588853
