19
Iteration:  4978charge 0 multiplicity 1
 C        -0.165419        -0.727783         0.200028
 C         1.279615        -0.074167        -0.096832
 C         2.521971        -0.895379        -0.566843
 C         3.451953         0.301906        -0.798987
 C         4.903662         0.100920        -1.005391
 O         2.679006         1.022586        -1.929538
 C         1.640316         1.272432        -0.950131
 C         2.700007         1.335361         0.222770
 O         1.819255         0.634317         1.172542
 H         0.027647        -1.213881         1.218573
 H        -0.848258         0.123350         0.124320
 H        -0.253757        -1.497182        -0.575255
 H         2.872641        -1.581474         0.239433
 H         2.366687        -1.452293        -1.487802
 H         5.317430         1.057961        -1.287911
 H         5.483138        -0.296038        -0.152795
 H         5.135439        -0.568375        -1.865221
 H         0.926501         1.849310        -1.576890
 H         3.353897         2.151307         0.514201
