19
Iteration:  1568charge 0 multiplicity 1
 C         0.012178        -0.594316         0.034193
 C         1.355805        -0.105588        -0.004798
 C         2.557759        -0.900265        -0.337349
 C         3.363503         0.361684        -0.752123
 C         4.891812         0.182981        -1.090138
 O         2.546950         0.828791        -1.941895
 C         1.719467         1.217473        -0.982344
 C         2.627662         1.334787         0.149372
 O         1.831346         0.628734         1.179639
 H        -0.419645        -1.225233         0.791080
 H        -0.707576         0.271579         0.154004
 H        -0.232209        -1.173108        -0.891220
 H         2.962990        -1.342308         0.597705
 H         2.497358        -1.624330        -1.158233
 H         5.133203         1.012723        -1.758500
 H         5.629687         0.081021        -0.166793
 H         5.039385        -0.680563        -1.683888
 H         1.008645         1.908699        -1.317263
 H         3.037247         2.322790         0.521886
