19
Iteration:    35
 C        -0.081488        -0.636583        -0.033003
 C         1.264656        -0.035462        -0.017344
 C         2.565711        -0.915498        -0.438787
 C         3.454154         0.243205        -0.773588
 C         4.936211         0.240449        -1.160569
 O         2.618167         0.949381        -1.874118
 C         1.697523         1.205959        -0.873423
 C         2.632453         1.252718         0.319451
 O         1.793794         0.610450         1.125698
 H        -0.200517        -1.422185         0.702590
 H        -0.902997         0.129726         0.080486
 H        -0.110232        -1.051766        -0.956348
 H         2.901060        -1.432299         0.497025
 H         2.496079        -1.576790        -1.228488
 H         5.475771        -0.636120        -0.993635
 H         4.942568         0.469380        -2.279114
 H         5.409591         1.039810        -0.692018
 H         0.968817         1.962483        -1.101918
 H         3.137240         2.136766         0.769987
