19
Iteration:  1952
 C        -0.113915        -0.641663         0.298870
 C         1.292642        -0.089456        -0.074751
 C         2.486661        -0.861881        -0.594498
 C         3.441275         0.354067        -0.796707
 C         4.941517         0.163446        -0.886137
 O         2.567291         0.947575        -1.951177
 C         1.643157         1.263239        -0.915375
 C         2.808648         1.362804         0.056939
 O         1.827015         0.495108         1.066585
 H         0.013274        -1.557914         0.907875
 H        -0.623824         0.251052         0.717419
 H        -0.669400        -1.036736        -0.649049
 H         2.778325        -1.420166         0.190531
 H         2.286683        -1.428552        -1.586943
 H         5.640194         1.039617        -1.300753
 H         5.326904        -0.047822         0.107687
 H         5.156832        -0.802588        -1.496805
 H         0.807761         1.915618        -1.224010
 H         3.314252         2.233239         0.512381
