19
Iteration:  3658
 C        -0.087331        -0.548379         0.252154
 C         1.272357        -0.077644        -0.148646
 C         2.506582        -0.940418        -0.599480
 C         3.378882         0.237597        -0.909966
 C         4.933971         0.267441        -0.891570
 O         2.668279         0.975258        -1.981045
 C         1.672235         1.222290        -0.925779
 C         2.699369         1.249259         0.142066
 O         1.826214         0.513703         1.178378
 H        -0.082224        -1.339900         0.933800
 H        -0.654278         0.276480         0.770157
 H        -0.678043        -0.913405        -0.616787
 H         2.916650        -1.457741         0.287346
 H         2.261282        -1.596686        -1.408839
 H         5.315303         1.332614        -1.306779
 H         5.367650         0.333113         0.098155
 H         5.547314        -0.581558        -1.326014
 H         0.753751         1.893473        -1.117529
 H         3.169950         2.137931         0.584916
