19
Iteration:  2008charge 0 multiplicity 1
 C        -0.183912        -0.609850         0.163396
 C         1.257445        -0.106968        -0.037398
 C         2.545898        -0.885127        -0.589685
 C         3.447583         0.289544        -0.824012
 C         4.909342         0.243077        -0.986770
 O         2.625135         0.868909        -1.980286
 C         1.636874         1.258178        -0.897884
 C         2.750562         1.279984         0.183014
 O         1.906061         0.599796         1.165191
 H        -0.139169        -1.092102         1.178207
 H        -0.932868         0.198194         0.433297
 H        -0.478008        -1.269476        -0.647754
 H         2.746289        -1.605289         0.118139
 H         2.250681        -1.458868        -1.522917
 H         5.345452         1.252860        -0.819731
 H         5.406538        -0.365858        -0.204333
 H         5.123276        -0.163857        -2.076233
 H         0.920792         2.111792        -1.207169
 H         3.238010         2.099078         0.749320
