19
Iteration:   906
 C        -0.064049        -0.682964         0.032782
 C         1.304354        -0.121334        -0.026041
 C         2.436275        -1.004625        -0.362563
 C         3.399455         0.351953        -0.784698
 C         4.907410         0.189582        -1.059283
 O         2.612106         0.914614        -1.977645
 C         1.697288         1.275532        -0.956743
 C         2.794671         1.317584         0.174645
 O         1.802616         0.671471         1.175117
 H        -0.046883        -1.123009         0.993469
 H        -0.775236         0.175848         0.261700
 H        -0.353528        -1.252554        -0.846144
 H         2.844731        -1.422037         0.563422
 H         2.639275        -1.715256        -1.257672
 H         5.280072         1.309449        -1.047504
 H         5.360693        -0.395200        -0.325647
 H         4.893704        -0.287701        -2.072584
 H         0.881267         1.990452        -1.166995
 H         3.275756         2.268597         0.610688
