19
Iteration:  3258charge 0 multiplicity 1
 C        -0.092672        -0.698092         0.031790
 C         1.318189        -0.006360        -0.052208
 C         2.550319        -0.937890        -0.424463
 C         3.501827         0.298535        -0.744831
 C         4.972689         0.087821        -1.161875
 O         2.555635         0.857211        -1.928373
 C         1.637537         1.264404        -0.870024
 C         2.621495         1.467431         0.313340
 O         1.831121         0.666754         1.168724
 H        -0.194578        -1.596530         0.679789
 H        -0.905165         0.094032         0.155089
 H        -0.009025        -0.992783        -0.993009
 H         2.840287        -1.705438         0.332025
 H         2.477143        -1.492683        -1.406977
 H         5.189128         0.747578        -2.081370
 H         5.767932         0.239272        -0.373530
 H         4.984915        -0.959486        -1.602951
 H         0.886829         2.009849        -1.225397
 H         3.001368         2.401953         0.671028
