19
Iteration:  1569
 C         0.009043        -0.596410         0.033775
 C         1.341584        -0.104365        -0.009322
 C         2.557419        -0.897755        -0.323586
 C         3.367686         0.356252        -0.760649
 C         4.893200         0.181008        -1.088555
 O         2.553062         0.837297        -1.945688
 C         1.719878         1.218338        -0.985097
 C         2.622494         1.336910         0.147933
 O         1.833788         0.626905         1.189610
 H        -0.389850        -1.250944         0.810896
 H        -0.689789         0.249785         0.179886
 H        -0.255043        -1.216431        -0.881793
 H         2.941266        -1.328752         0.542936
 H         2.487486        -1.649360        -1.161759
 H         5.153806         1.047782        -1.765025
 H         5.606441         0.067500        -0.163510
 H         5.066313        -0.688074        -1.693909
 H         1.034831         1.923463        -1.332368
 H         3.059027         2.323393         0.482950
