19
Iteration:   134
 C        -0.008030        -0.682742         0.243160
 C         1.330694        -0.131463        -0.117678
 C         2.455027        -1.012459        -0.586322
 C         3.378206         0.295348        -0.801380
 C         4.859824         0.265661        -0.925194
 O         2.682765         0.950908        -1.913039
 C         1.693264         1.248657        -1.026856
 C         2.631766         1.381354         0.205594
 O         1.842327         0.603725         1.092043
 H         0.072976        -1.525987         0.927855
 H        -0.577968         0.208436         0.696969
 H        -0.354142        -0.930327        -0.680135
 H         2.687242        -1.761576         0.230273
 H         2.212601        -1.558577        -1.432014
 H         5.229001         0.153156        -1.903029
 H         5.410370         1.202478        -0.478229
 H         5.053721        -0.545383        -0.331076
 H         0.950593         2.008724        -1.262943
 H         3.168040         2.336569         0.557228
