19
Iteration:  2849
 C        -0.065809        -0.692647         0.194689
 C         1.296562        -0.044643        -0.042967
 C         2.496870        -0.864690        -0.483327
 C         3.372712         0.289242        -0.894251
 C         4.851102         0.066948        -0.837834
 O         2.628475         0.852815        -2.053460
 C         1.671792         1.221069        -0.939949
 C         2.640288         1.490549         0.115324
 O         1.935114         0.655911         1.110064
 H         0.029862        -1.720372         0.793601
 H        -0.650055        -0.053430         0.853373
 H        -0.662586        -0.810454        -0.734543
 H         3.067684        -1.309622         0.370270
 H         2.556071        -1.654071        -1.193827
 H         5.321209         1.015560        -1.273525
 H         5.197548         0.095672         0.229593
 H         5.097613        -0.799208        -1.346091
 H         0.906733         1.895664        -1.227630
 H         3.297621         2.447306         0.362364
