19
Iteration:  4207
 C        -0.006877        -0.767652         0.191111
 C         1.276340        -0.088881        -0.100082
 C         2.408804        -0.944721        -0.462781
 C         3.419835         0.326299        -0.805166
 C         4.859199         0.191280        -1.008710
 O         2.732448         0.839497        -1.887925
 C         1.691964         1.339590        -0.985164
 C         2.581557         1.449331         0.177584
 O         1.894270         0.641892         1.106394
 H        -0.002789        -1.367945         1.206672
 H        -0.820992        -0.032777         0.248482
 H        -0.204843        -1.354817        -0.743258
 H         2.692223        -1.515449         0.393528
 H         2.208299        -1.595953        -1.332576
 H         5.303671         1.093914        -1.547680
 H         5.517969        -0.042103        -0.168387
 H         5.017077        -0.582476        -1.777183
 H         0.877755         2.022976        -1.366965
 H         2.960851         2.445923         0.601520
