19
Iteration:  2684
 C        -0.077791        -0.662563         0.267334
 C         1.262652         0.002010        -0.095377
 C         2.551111        -0.942211        -0.471792
 C         3.400374         0.337257        -0.808193
 C         4.927875         0.075663        -0.958944
 O         2.661455         0.890416        -1.985456
 C         1.723970         1.326688        -0.995279
 C         2.674874         1.365569         0.088397
 O         1.772181         0.636573         1.098998
 H         0.255704        -1.566990         0.810394
 H        -0.695075        -0.140951         1.036745
 H        -0.738831        -1.118656        -0.447534
 H         2.794538        -1.353014         0.542053
 H         2.297469        -1.619965        -1.331776
 H         5.457966         0.884985        -1.442666
 H         5.430674        -0.042662         0.044438
 H         5.016127        -0.795497        -1.568832
 H         0.892141         1.888690        -1.310935
 H         3.135930         2.245279         0.617197
