19
Iteration:  2831
 C         0.009902        -0.719775         0.303705
 C         1.279326        -0.049841        -0.095842
 C         2.498498        -0.958233        -0.434963
 C         3.418928         0.340722        -0.876429
 C         4.864570         0.073437        -0.834354
 O         2.647137         0.967872        -1.955610
 C         1.592214         1.278223        -1.076875
 C         2.685118         1.312356         0.080200
 O         1.884533         0.741225         1.050677
 H         0.156395        -1.643480         0.769059
 H        -0.606272        -0.131288         0.956933
 H        -0.618357        -1.005226        -0.575491
 H         2.826395        -1.553594         0.491974
 H         2.277446        -1.583806        -1.338913
 H         5.462074         0.914581        -1.245792
 H         4.929017        -0.173792         0.202272
 H         5.172030        -0.883116        -1.464373
 H         0.850079         2.072556        -1.455504
 H         3.206213         2.165093         0.433905
