19
Iteration:  2455
 C        -0.194470        -0.577496         0.208931
 C         1.283836        -0.032510        -0.105634
 C         2.542254        -0.980219        -0.466270
 C         3.397803         0.238338        -0.833991
 C         4.934603         0.238278        -0.964601
 O         2.650039         0.887283        -1.944522
 C         1.628099         1.232028        -0.917212
 C         2.661121         1.333670         0.153111
 O         1.972293         0.600793         1.062040
 H        -0.331645        -1.585650         0.595683
 H        -0.785324         0.026235         0.957940
 H        -0.695128        -0.555784        -0.739331
 H         2.796143        -1.563382         0.354954
 H         2.333487        -1.630793        -1.336773
 H         5.344325         1.221216        -1.101432
 H         5.252650        -0.185259         0.041458
 H         5.368506        -0.352374        -1.827000
 H         0.910732         2.023600        -1.200293
 H         3.157871         2.200767         0.566524
