19
Iteration:  2067
 C        -0.080255        -0.716962        -0.051813
 C         1.318268        -0.090275         0.008333
 C         2.551321        -0.910293        -0.417208
 C         3.467878         0.327505        -0.786457
 C         4.809948         0.052518        -1.280251
 O         2.632398         0.911436        -1.848360
 C         1.715010         1.284476        -0.880141
 C         2.647969         1.426464         0.314146
 O         1.845667         0.708674         1.234263
 H        -0.086078        -1.759052         0.385270
 H        -0.949280        -0.049943         0.175990
 H        -0.257452        -1.034270        -1.128102
 H         2.910669        -1.628776         0.475133
 H         2.416080        -1.421191        -1.323848
 H         5.326849         0.955056        -1.642717
 H         5.302367        -0.376471        -0.354915
 H         4.814371        -0.693460        -2.049644
 H         1.065243         2.062300        -1.176227
 H         2.990991         2.385813         0.689252
