19
Iteration:  3136charge 0 multiplicity 1
 C        -0.052825        -0.701735         0.346010
 C         1.300609         0.002999        -0.106170
 C         2.507015        -0.928307        -0.444781
 C         3.453328         0.355570        -0.855487
 C         4.886942         0.077442        -0.918317
 O         2.684136         0.932979        -1.985321
 C         1.623120         1.292468        -1.021414
 C         2.698112         1.343023         0.139982
 O         1.745321         0.595970         1.050275
 H         0.248579        -1.248794         1.173207
 H        -0.835849         0.128825         0.563832
 H        -0.330960        -1.414542        -0.453988
 H         2.921371        -1.572764         0.268771
 H         2.433619        -1.514613        -1.386207
 H         5.679021         0.940350        -0.771864
 H         5.180185        -0.657844        -0.240621
 H         5.101301        -0.148651        -1.954486
 H         0.989481         2.242089        -1.269130
 H         3.083500         2.322375         0.436228
