19
Iteration:  1244charge 0 multiplicity 1
 C        -0.102742        -0.633386         0.163987
 C         1.288110        -0.095923         0.043246
 C         2.491301        -1.011623        -0.404148
 C         3.470300         0.297974        -0.758956
 C         4.880124         0.247224        -1.070849
 O         2.648416         0.826891        -1.946376
 C         1.657389         1.225974        -1.014159
 C         2.631304         1.400459         0.198413
 O         1.897962         0.682588         1.081040
 H        -0.545247        -1.195689         0.942260
 H        -0.728020         0.206523        -0.075298
 H        -0.075829        -1.400543        -0.672253
 H         2.731732        -1.639883         0.362726
 H         2.348188        -1.540529        -1.358830
 H         5.494837         1.205107        -0.938321
 H         5.274716        -0.441307        -0.346291
 H         5.069790        -0.033513        -2.116600
 H         1.068733         2.059323        -1.347249
 H         3.173141         2.294203         0.598018
