19
Iteration:   374
 C        -0.020215        -0.684161        -0.073105
 C         1.351468        -0.144951        -0.095107
 C         2.578684        -0.895303        -0.371317
 C         3.382679         0.347692        -0.765323
 C         4.799350         0.163107        -1.156557
 O         2.607112         0.869638        -1.839129
 C         1.698481         1.193373        -0.908403
 C         2.725597         1.465675         0.234000
 O         1.789646         0.662092         1.186658
 H        -0.135254        -1.354477         0.808321
 H        -0.794565         0.106757         0.152328
 H        -0.355080        -1.307719        -0.963941
 H         2.984660        -1.509502         0.471290
 H         2.544719        -1.683779        -1.168696
 H         5.197318         1.167355        -1.410312
 H         5.530084        -0.137085        -0.314962
 H         4.805764        -0.640262        -1.882821
 H         0.917570         1.922527        -1.238314
 H         3.105503         2.421147         0.711911
