19
Iteration:  4973
 C        -0.129566        -0.717414         0.186086
 C         1.256711        -0.073139        -0.101788
 C         2.557184        -0.915572        -0.557055
 C         3.435367         0.314422        -0.805074
 C         4.965215         0.069593        -1.031882
 O         2.670673         1.025229        -1.897337
 C         1.624214         1.319983        -0.960638
 C         2.658027         1.280504         0.184926
 O         1.824484         0.662498         1.177002
 H        -0.050457        -1.166426         1.137348
 H        -0.987233        -0.007384         0.299226
 H        -0.267962        -1.534327        -0.544175
 H         2.806958        -1.586488         0.253551
 H         2.348041        -1.409105        -1.534816
 H         5.487513         1.012625        -1.337047
 H         5.446881        -0.201481        -0.084880
 H         5.225497        -0.680502        -1.776786
 H         0.803447         1.908385        -1.387385
 H         3.200348         2.164105         0.616589
