19
Iteration:  2867charge 0 multiplicity 1
 C        -0.038761        -0.583224         0.115729
 C         1.353086        -0.047479        -0.018685
 C         2.542993        -0.904917        -0.428740
 C         3.383367         0.334640        -0.745615
 C         4.899968         0.185305        -0.976483
 O         2.559146         0.779053        -1.976420
 C         1.602720         1.206819        -1.025199
 C         2.671663         1.326466         0.123547
 O         1.914139         0.689695         1.149933
 H        -0.028669        -1.524390         0.636855
 H        -0.735894         0.124202         0.627867
 H        -0.340934        -0.691914        -0.903634
 H         2.730772        -1.636961         0.310618
 H         2.239403        -1.409541        -1.372741
 H         5.517592         0.988138        -1.314084
 H         5.385675         0.100135         0.048002
 H         5.120855        -0.902798        -1.374549
 H         0.786460         1.846325        -1.370531
 H         3.114357         2.231426         0.489972
