19
Iteration:   648charge 0 multiplicity 1
 C        -0.170573        -0.599140         0.187326
 C         1.256454        -0.116150        -0.100954
 C         2.568700        -0.874309        -0.492377
 C         3.462169         0.351998        -0.834553
 C         4.929864         0.211507        -0.935418
 O         2.647135         0.874464        -1.949517
 C         1.654165         1.238005        -1.000342
 C         2.660772         1.364907         0.181941
 O         1.889398         0.527992         1.159499
 H        -0.110995        -1.365838         0.962289
 H        -0.732894         0.067290         0.685835
 H        -0.697522        -1.008446        -0.761216
 H         2.802074        -1.728565         0.021522
 H         2.319988        -1.302313        -1.558560
 H         5.386760         1.230130        -1.041742
 H         5.235965        -0.205995        -0.022791
 H         5.250632        -0.413432        -1.795618
 H         0.824892         1.886226        -1.318225
 H         3.144059         2.312304         0.491309
