19
Iteration:  1522charge 0 multiplicity 1
 C        -0.086793        -0.656255         0.097037
 C         1.260932        -0.082659         0.021419
 C         2.472657        -0.931728        -0.369832
 C         3.424969         0.263835        -0.738945
 C         4.936060         0.301182        -1.071610
 O         2.666327         0.832533        -2.026940
 C         1.634417         1.203978        -0.941892
 C         2.698307         1.337471         0.176389
 O         1.874057         0.675462         1.113380
 H        -0.484516        -1.498487         0.655545
 H        -0.804342         0.172196         0.420883
 H        -0.236890        -0.936614        -0.920655
 H         2.797452        -1.466257         0.662868
 H         2.264704        -1.704408        -1.032360
 H         5.095146         1.115189        -1.713115
 H         5.598983         0.231613        -0.156147
 H         5.171727        -0.603366        -1.643894
 H         0.884660         1.994316        -1.202632
 H         3.325176         2.172045         0.564013
