19
Iteration:  3812
 C        -0.089837        -0.558481         0.182335
 C         1.263700        -0.047207        -0.088548
 C         2.488307        -0.984135        -0.477282
 C         3.363242         0.228048        -0.838399
 C         4.915697         0.241242        -0.925613
 O         2.649771         0.960518        -1.957249
 C         1.674018         1.272294        -0.939899
 C         2.635726         1.298668         0.171748
 O         1.934345         0.518836         1.085011
 H        -0.034766        -1.412404         0.855478
 H        -0.849954         0.090862         0.673747
 H        -0.454435        -0.959482        -0.743230
 H         2.843264        -1.438014         0.458025
 H         2.243973        -1.665385        -1.239985
 H         5.271407         1.253907        -1.261171
 H         5.378082        -0.126890        -0.079642
 H         5.544741        -0.174000        -1.716440
 H         0.871195         1.938606        -1.325594
 H         3.173263         2.249609         0.408699
