19
Iteration:  4580
 C        -0.084334        -0.556220         0.092657
 C         1.316708        -0.040109         0.029232
 C         2.540958        -0.987348        -0.395198
 C         3.378914         0.212554        -0.895425
 C         4.915692         0.296169        -1.133053
 O         2.685329         0.889719        -1.862197
 C         1.603027         1.131465        -0.969678
 C         2.634585         1.296766         0.231589
 O         1.858878         0.666488         1.148299
 H        -0.412307        -0.990404         1.073285
 H        -0.639956         0.281489        -0.330351
 H        -0.103481        -1.370356        -0.622413
 H         2.775274        -1.586066         0.505929
 H         2.236596        -1.570219        -1.258396
 H         5.313094         1.261425        -0.667601
 H         5.504390        -0.534244        -0.606343
 H         5.240949         0.387605        -2.191562
 H         0.823372         1.697561        -1.618135
 H         3.230539         2.117774         0.712269
