19
Iteration:  4899
 C        -0.101805        -0.562726         0.022023
 C         1.284569        -0.041863        -0.069582
 C         2.535556        -0.933663        -0.452697
 C         3.454160         0.229665        -0.777959
 C         5.020895         0.248471        -1.050038
 O         2.527901         0.893821        -1.949400
 C         1.618266         1.189760        -0.907101
 C         2.689778         1.295237         0.255378
 O         1.837298         0.615608         1.163450
 H        -0.062814        -1.543410         0.498584
 H        -0.717689         0.005980         0.756304
 H        -0.554141        -0.583362        -1.022215
 H         2.930247        -1.529434         0.353473
 H         2.309131        -1.450220        -1.407674
 H         5.386647         1.042881        -1.668853
 H         5.514960         0.412450        -0.106169
 H         5.508371        -0.654102        -1.400144
 H         0.831751         1.913398        -1.262586
 H         3.329495         1.969668         0.685907
