19
Iteration:  3319
 C        -0.038854        -0.658806         0.339490
 C         1.239011        -0.085670        -0.115344
 C         2.484889        -0.893558        -0.614131
 C         3.420776         0.309003        -0.842808
 C         4.972143         0.223167        -0.869858
 O         2.643464         0.866681        -1.916498
 C         1.619171         1.250886        -0.967400
 C         2.684683         1.336753         0.159589
 O         1.864543         0.594002         1.041101
 H        -0.152697        -1.396792         1.140158
 H        -0.698843         0.179269         0.527460
 H        -0.651007        -1.121566        -0.514159
 H         2.686787        -1.783620        -0.021185
 H         2.171985        -1.084498        -1.649119
 H         5.515146         1.206260        -0.752753
 H         5.174294        -0.377801        -0.047314
 H         5.397798        -0.253847        -1.709812
 H         0.926512         2.040702        -1.403640
 H         3.264305         2.271543         0.448481
