19
Iteration:  3602charge 0 multiplicity 1
 C        -0.033305        -0.702559        -0.006419
 C         1.318411        -0.030858        -0.008839
 C         2.527441        -0.934062        -0.386295
 C         3.367265         0.340746        -0.802526
 C         4.899553         0.127879        -1.149674
 O         2.651782         0.969422        -1.958773
 C         1.661433         1.226432        -0.903443
 C         2.709140         1.290614         0.230088
 O         1.806878         0.680102         1.244430
 H        -0.084285        -1.553863         0.658398
 H        -0.817409         0.046205         0.111227
 H        -0.222493        -1.044096        -1.089204
 H         2.856046        -1.513442         0.443186
 H         2.207054        -1.537173        -1.275803
 H         5.609577         1.085197        -1.258456
 H         5.125805        -0.563958        -0.278440
 H         4.990492        -0.399447        -2.154323
 H         0.834299         1.990631        -1.118760
 H         3.106788         2.121319         0.813759
