19
Iteration:  3253
 C        -0.092889        -0.666594         0.023784
 C         1.312144        -0.019004        -0.065697
 C         2.575788        -0.928235        -0.428806
 C         3.484079         0.294228        -0.711300
 C         4.992459         0.094404        -1.214375
 O         2.565517         0.832960        -1.904987
 C         1.653496         1.258544        -0.906552
 C         2.578158         1.446264         0.274589
 O         1.817669         0.667218         1.226669
 H        -0.113171        -1.595617         0.621174
 H        -0.759901         0.126362         0.142733
 H        -0.119569        -0.992291        -1.065920
 H         2.856707        -1.561498         0.424430
 H         2.405264        -1.346343        -1.396051
 H         5.161309         0.725187        -2.066257
 H         5.686997         0.246131        -0.418516
 H         5.065108        -0.890341        -1.603928
 H         0.896139         2.036245        -1.112518
 H         3.089906         2.330725         0.769494
