19
Iteration:  4474
 C         0.060480        -0.712749         0.182672
 C         1.284839         0.029341        -0.098408
 C         2.474278        -0.802610        -0.445863
 C         3.411774         0.292588        -0.791554
 C         4.833778         0.087161        -0.942987
 O         2.614284         0.917395        -2.018203
 C         1.653898         1.271196        -0.980732
 C         2.627753         1.342480         0.194642
 O         1.897784         0.548896         1.095384
 H         0.253770        -1.623470         0.695819
 H        -0.644004        -0.067357         0.951915
 H        -0.672459        -0.872474        -0.688171
 H         2.887761        -1.435951         0.350763
 H         2.210624        -1.397714        -1.340177
 H         5.325902         0.931510        -1.571096
 H         5.424672         0.424727        -0.061256
 H         5.373840        -0.850711        -1.031055
 H         0.773293         1.884982        -1.405531
 H         3.053703         2.291655         0.533243
