19
Iteration:  2221
 C        -0.039459        -0.703059        -0.059352
 C         1.327527        -0.014361        -0.035237
 C         2.576448        -0.950403        -0.448861
 C         3.372113         0.334543        -0.762025
 C         4.823180         0.034499        -1.235235
 O         2.621671         0.854935        -1.927747
 C         1.679566         1.394741        -0.814869
 C         2.680881         1.404633         0.317399
 O         1.806776         0.649490         1.254353
 H        -0.028116        -1.409832         0.771089
 H        -0.920868        -0.095481         0.105885
 H        -0.068618        -1.133808        -1.165179
 H         3.139326        -1.541814         0.356142
 H         2.424792        -1.521824        -1.254921
 H         5.288976         1.068891        -1.584367
 H         5.539430        -0.372938        -0.444069
 H         4.931224        -0.575483        -2.145784
 H         0.912499         2.058992        -1.088888
 H         3.220508         2.284366         0.783628
