19
Iteration:  2011
 C        -0.197575        -0.629887         0.145897
 C         1.249500        -0.100936        -0.047803
 C         2.547779        -0.876496        -0.595373
 C         3.454497         0.287040        -0.832886
 C         4.924633         0.237554        -1.007107
 O         2.626187         0.847819        -1.989914
 C         1.649864         1.288224        -0.891086
 C         2.746749         1.315362         0.206680
 O         1.894976         0.589759         1.193726
 H        -0.164877        -1.136783         1.188996
 H        -0.965066         0.214311         0.389385
 H        -0.590444        -1.272826        -0.627177
 H         2.885846        -1.635897         0.255492
 H         2.332421        -1.473965        -1.439415
 H         5.303002         1.213691        -0.940543
 H         5.406522        -0.458398        -0.241507
 H         5.106424        -0.122773        -2.040725
 H         0.927708         2.116982        -1.152861
 H         3.259826         2.136313         0.694410
