19
Iteration:  3550charge 0 multiplicity 1
 C        -0.093837        -0.690533         0.057763
 C         1.314314        -0.056100         0.026371
 C         2.454472        -0.868325        -0.477055
 C         3.393912         0.349993        -0.725186
 C         4.928251         0.124690        -1.139518
 O         2.713643         0.935313        -1.898501
 C         1.689619         1.185976        -0.964616
 C         2.661877         1.373171         0.190456
 O         1.836116         0.588517         1.205769
 H        -0.142470        -1.449985         0.765448
 H        -0.784386         0.141586         0.222365
 H        -0.457122        -0.995007        -0.902285
 H         2.882115        -1.544235         0.285078
 H         2.219084        -1.425969        -1.373566
 H         5.358502         1.148518        -1.164119
 H         5.434128        -0.518205        -0.539603
 H         4.846067        -0.100813        -2.185983
 H         0.898129         1.947924        -1.252750
 H         3.113208         2.223043         0.709723
