19
Iteration:  3830
 C        -0.039590        -0.609249         0.194214
 C         1.356550        -0.077717        -0.145057
 C         2.481701        -0.931996        -0.577395
 C         3.340196         0.312467        -0.776195
 C         4.830620         0.251953        -0.854085
 O         2.567820         0.880893        -1.996240
 C         1.675202         1.277743        -0.948585
 C         2.745281         1.306156         0.154431
 O         1.935420         0.555978         1.118930
 H        -0.154237        -1.418594         0.938669
 H        -0.665551         0.256783         0.617849
 H        -0.751983        -0.932303        -0.670422
 H         2.743906        -1.663016         0.194754
 H         2.433712        -1.493865        -1.546355
 H         5.367175         1.167800        -1.217354
 H         5.184603         0.093918         0.278070
 H         5.196553        -0.654108        -1.467791
 H         0.909437         2.068673        -1.260873
 H         3.349309         2.065337         0.684906
