19
Iteration:  1377
 C        -0.068229        -0.543474         0.020133
 C         1.311939        -0.086655        -0.008865
 C         2.570662        -0.956031        -0.321734
 C         3.419398         0.294335        -0.771480
 C         4.899745         0.213284        -1.100838
 O         2.639661         0.806892        -1.919148
 C         1.578013         1.193460        -0.930884
 C         2.651283         1.377760         0.170271
 O         1.868352         0.640480         1.144140
 H        -0.373858        -1.332186         0.771733
 H        -0.713412         0.310906         0.111259
 H        -0.156219        -0.941149        -1.051471
 H         3.013771        -1.327848         0.611495
 H         2.503210        -1.815241        -1.082079
 H         5.050722         1.142979        -1.795559
 H         5.526434         0.256273        -0.266388
 H         5.173614        -0.711914        -1.732879
 H         0.707462         1.883279        -1.262747
 H         3.128938         2.295908         0.513707
