19
Iteration:  2231
 C         0.044067        -0.690158        -0.074780
 C         1.357607        -0.002755         0.013475
 C         2.541304        -0.899409        -0.408934
 C         3.401090         0.282485        -0.808311
 C         4.738719         0.090958        -1.251971
 O         2.632670         0.924766        -1.920615
 C         1.710064         1.285977        -0.851671
 C         2.708281         1.378179         0.326416
 O         1.763523         0.626712         1.234449
 H        -0.067498        -1.581571         0.560127
 H        -0.642442         0.085984         0.186448
 H        -0.315664        -1.112297        -1.096248
 H         2.944932        -1.324143         0.618645
 H         2.452712        -1.635001        -1.101511
 H         5.273055         1.056780        -1.649818
 H         5.326227        -0.364376        -0.347597
 H         4.731834        -0.724078        -2.012228
 H         1.030550         2.009500        -1.163377
 H         3.253670         2.262527         0.751502
