19
Iteration:   466
 C        -0.118855        -0.577852         0.220003
 C         1.231987        -0.124126        -0.115979
 C         2.539517        -0.996044        -0.562565
 C         3.395883         0.414919        -0.905441
 C         4.931546         0.228855        -0.886838
 O         2.705759         0.897340        -1.951249
 C         1.538250         1.197294        -0.958447
 C         2.636640         1.330121         0.181404
 O         1.934013         0.578924         1.128849
 H         0.192495        -1.431401         0.853875
 H        -0.620475         0.177822         0.851359
 H        -0.483842        -1.017454        -0.714870
 H         2.776987        -1.659613         0.325534
 H         2.447147        -1.502210        -1.540138
 H         5.365088         1.227856        -0.861758
 H         5.261685        -0.093328         0.090562
 H         5.378385        -0.487541        -1.591361
 H         0.855387         2.022792        -1.256285
 H         3.073041         2.297973         0.418920
