19
Iteration:  4640charge 0 multiplicity 1
 C         0.059605        -0.747780         0.167947
 C         1.294582        -0.060719        -0.071116
 C         2.456611        -0.941149        -0.526732
 C         3.411823         0.289852        -0.845396
 C         4.905046         0.065601        -0.974936
 O         2.706744         1.012011        -1.968507
 C         1.680330         1.236876        -0.943912
 C         2.566364         1.437894         0.206294
 O         1.826578         0.673549         1.168554
 H         0.091559        -1.441069         1.025081
 H        -0.661004        -0.034179         0.553689
 H        -0.378583        -1.189678        -0.730379
 H         2.678029        -1.676752         0.236262
 H         2.134731        -1.514825        -1.423346
 H         5.346516         0.984136        -1.391571
 H         5.340613        -0.197372        -0.014870
 H         4.937479        -0.782066        -1.691943
 H         0.969231         1.911315        -1.284582
 H         2.862750         2.448111         0.464362
