19
Iteration:  3730
 C        -0.113724        -0.781976        -0.006307
 C         1.309614        -0.035054         0.034721
 C         2.639657        -0.942623        -0.430493
 C         3.365641         0.277453        -0.715299
 C         4.884211         0.085337        -1.119617
 O         2.580935         1.019152        -1.978700
 C         1.677265         1.319955        -0.852850
 C         2.746529         1.376443         0.182466
 O         1.814539         0.675907         1.159199
 H        -0.262301        -1.625270         0.769538
 H        -0.920614        -0.053246         0.153267
 H        -0.395071        -1.243061        -1.041557
 H         2.871421        -1.449501         0.523735
 H         2.597200        -1.719908        -1.291931
 H         5.392895         1.048726        -1.039839
 H         5.444631        -0.619651        -0.276023
 H         4.835744        -0.520577        -2.032704
 H         1.029850         2.094884        -1.180723
 H         3.308997         2.218490         0.510360
