19
Iteration:  3922charge 0 multiplicity 1
 C        -0.080731        -0.681637        -0.031263
 C         1.291704        -0.054322         0.037180
 C         2.545824        -0.967155        -0.400250
 C         3.415944         0.263866        -0.733912
 C         4.925562         0.164733        -1.161954
 O         2.626681         0.920261        -1.918979
 C         1.647675         1.186113        -0.863139
 C         2.715102         1.361129         0.238848
 O         1.811719         0.734363         1.145787
 H        -0.199768        -1.462228         0.820658
 H        -0.826213         0.165361         0.108222
 H        -0.179592        -1.090670        -1.027729
 H         2.802249        -1.688139         0.374320
 H         2.339967        -1.548072        -1.283009
 H         5.406024         1.233022        -1.147926
 H         5.457347        -0.478569        -0.486568
 H         4.878230        -0.234438        -2.257623
 H         0.889518         1.902237        -1.014045
 H         3.226905         2.293709         0.357483
