19
Iteration:  1399
 C        -0.113059        -0.644177         0.016875
 C         1.318325        -0.064718        -0.019905
 C         2.519756        -1.007217        -0.321867
 C         3.435422         0.205031        -0.757175
 C         4.860833         0.296760        -1.110963
 O         2.675724         0.818406        -1.967407
 C         1.696499         1.176973        -0.978272
 C         2.662435         1.416868         0.187708
 O         1.865220         0.735891         1.205880
 H        -0.277761        -1.230433         0.975104
 H        -0.813225         0.174044         0.125506
 H        -0.507574        -1.241658        -0.853859
 H         2.921452        -1.743267         0.394439
 H         2.164225        -1.556989        -1.251079
 H         5.133077         1.351680        -1.484305
 H         5.371139         0.000659        -0.261752
 H         5.047720        -0.483604        -1.917213
 H         0.835737         1.889764        -1.169177
 H         3.255833         2.251969         0.524463
