19
Iteration:   348
 C        -0.085458        -0.645368         0.050418
 C         1.274859        -0.086134        -0.007286
 C         2.580499        -0.856855        -0.412308
 C         3.465420         0.284030        -0.808293
 C         4.957776         0.244612        -1.104548
 O         2.635428         0.886506        -1.926780
 C         1.636762         1.145262        -0.926132
 C         2.616456         1.353801         0.206045
 O         1.826728         0.656597         1.145698
 H        -0.328627        -1.382154         0.840341
 H        -1.031489         0.032473         0.074031
 H        -0.130959        -1.221102        -0.825182
 H         2.905875        -1.533985         0.496167
 H         2.313160        -1.626050        -1.072222
 H         5.538713         1.115215        -0.854707
 H         5.533177        -0.584902        -0.541009
 H         4.844518        -0.241063        -2.095696
 H         1.054405         2.033775        -1.039914
 H         2.894768         2.284725         0.631214
