19
Iteration:   693
 C        -0.063688        -0.785460        -0.046991
 C         1.298764        -0.026371        -0.077767
 C         2.481345        -0.932090        -0.365079
 C         3.420377         0.308359        -0.754020
 C         4.857962         0.141636        -1.178462
 O         2.611931         0.892767        -1.888716
 C         1.715422         1.300160        -0.887335
 C         2.708090         1.419517         0.265611
 O         1.828694         0.662690         1.170762
 H        -0.080673        -1.172102         0.994951
 H        -0.825813        -0.099420         0.113048
 H        -0.338343        -1.433248        -0.932401
 H         2.932176        -1.374227         0.519987
 H         2.485094        -1.755953        -1.186514
 H         5.484128         1.037452        -1.133433
 H         5.297754        -0.550793        -0.423620
 H         5.063191        -0.216180        -2.197642
 H         1.080053         2.106316        -1.323583
 H         3.171898         2.301005         0.679943
