19
Iteration:  4902
 C        -0.130645        -0.586470         0.005884
 C         1.310734        -0.015476        -0.046693
 C         2.492965        -0.932555        -0.449005
 C         3.467078         0.236667        -0.783761
 C         5.020514         0.228065        -1.052380
 O         2.539613         0.901764        -1.930204
 C         1.626143         1.206552        -0.927856
 C         2.691390         1.305683         0.244207
 O         1.843614         0.604301         1.155788
 H        -0.011857        -1.602669         0.534869
 H        -0.648314         0.003962         0.749396
 H        -0.550019        -0.643275        -1.010195
 H         2.930816        -1.545466         0.351227
 H         2.355592        -1.429974        -1.403592
 H         5.336258         1.029027        -1.687625
 H         5.457686         0.485632        -0.052818
 H         5.563428        -0.698266        -1.417253
 H         0.695737         1.742562        -1.104521
 H         3.337401         2.086158         0.637083
