19
Iteration:  3371charge 0 multiplicity 1
 C        -0.141162        -0.577170         0.075169
 C         1.258413        -0.082975        -0.054168
 C         2.564804        -0.946361        -0.426809
 C         3.409428         0.336447        -0.769178
 C         4.950632         0.246806        -1.060450
 O         2.598645         0.825940        -1.938931
 C         1.639702         1.248234        -0.918447
 C         2.687035         1.344300         0.185170
 O         1.878885         0.579216         1.148082
 H        -0.201233        -1.534584         0.702220
 H        -0.851649         0.148377         0.380769
 H        -0.481964        -1.036169        -0.897991
 H         3.041202        -1.200718         0.581905
 H         2.512630        -1.696895        -1.231343
 H         5.611620         1.072899        -0.795345
 H         5.311969        -0.714392        -0.571845
 H         5.018277         0.218777        -2.169833
 H         0.985394         2.075755        -1.148578
 H         3.326299         2.185265         0.520196
