19
Iteration:  2275charge 0 multiplicity 1
 C        -0.147628        -0.629044         0.145853
 C         1.323282        -0.073762        -0.071821
 C         2.509655        -0.873738        -0.527065
 C         3.419161         0.340305        -0.822245
 C         4.854188         0.187606        -1.059516
 O         2.618562         0.842584        -1.931017
 C         1.739041         1.253083        -0.927731
 C         2.667164         1.332619         0.249529
 O         1.890674         0.589715         1.198221
 H        -0.164655        -1.660851         0.493350
 H        -0.752585         0.064377         0.679990
 H        -0.549992        -0.605337        -0.936361
 H         2.936141        -1.670213         0.224838
 H         2.236675        -1.293550        -1.430751
 H         5.341623         1.181328        -1.470474
 H         5.442292        -0.174078        -0.149315
 H         5.169759        -0.548344        -1.799473
 H         0.992599         1.909339        -1.271897
 H         3.164944         2.268636         0.636462
