19
Iteration:  1961
 C        -0.103400        -0.608229         0.338546
 C         1.245229        -0.085274        -0.111753
 C         2.510119        -0.872297        -0.608007
 C         3.401399         0.342342        -0.853182
 C         4.859292         0.188979        -0.861044
 O         2.622526         0.945323        -1.985632
 C         1.657183         1.259639        -0.997395
 C         2.727505         1.283590         0.155379
 O         1.922030         0.510858         1.087119
 H        -0.051042        -1.315254         1.112703
 H        -0.702429         0.112589         0.789847
 H        -0.562867        -0.962884        -0.636817
 H         2.992367        -1.583795         0.045025
 H         2.492077        -1.385993        -1.579487
 H         5.470970         1.169985        -1.062999
 H         5.044958        -0.029131         0.195811
 H         5.147942        -0.649913        -1.488715
 H         0.900990         1.950709        -1.198161
 H         3.327964         2.123358         0.529490
