19
Iteration:  2658charge 0 multiplicity 1
 C         0.016807        -0.640991         0.314779
 C         1.324698        -0.129454        -0.086794
 C         2.446290        -0.850845        -0.573135
 C         3.352130         0.340327        -0.786282
 C         4.856214         0.026132        -0.822635
 O         2.652232         0.906694        -1.971127
 C         1.691104         1.208020        -1.031487
 C         2.631425         1.384643         0.067266
 O         1.926694         0.715994         1.079297
 H         0.032127        -1.718242         0.569769
 H        -0.589462        -0.119692         1.115506
 H        -0.672150        -0.736951        -0.615981
 H         2.865920        -1.555101         0.087752
 H         2.120758        -1.212770        -1.559506
 H         5.232287         1.037951        -0.981197
 H         5.202814        -0.074915         0.150629
 H         5.239483        -0.820142        -1.506143
 H         0.770082         1.794302        -1.367966
 H         3.059196         2.228876         0.479347
