19
Iteration:  4079charge 0 multiplicity 1
 C        -0.108447        -0.625607        -0.044009
 C         1.310144        -0.071406        -0.083003
 C         2.509357        -0.899562        -0.372452
 C         3.454738         0.284393        -0.741123
 C         4.844675         0.207611        -1.109395
 O         2.630259         0.856344        -1.892436
 C         1.679471         1.164876        -0.962756
 C         2.667133         1.433103         0.226957
 O         1.949991         0.636376         1.208668
 H        -0.212632        -1.425568         0.793251
 H        -0.961541        -0.008581         0.173642
 H        -0.493581        -1.324136        -0.811559
 H         2.848229        -1.530200         0.514802
 H         2.329416        -1.539865        -1.323333
 H         5.034611         1.027194        -1.831442
 H         5.575699         0.249252        -0.154974
 H         4.930567        -0.792237        -1.618199
 H         0.832858         1.885877        -1.108966
 H         2.898792         2.490759         0.432185
