19
Iteration:  4717
 C        -0.187470        -0.559210         0.051643
 C         1.281048        -0.181094        -0.021772
 C         2.514467        -0.947744        -0.437223
 C         3.386635         0.249295        -0.742272
 C         4.855317         0.301558        -1.049319
 O         2.656758         0.856535        -2.008628
 C         1.718791         1.216610        -0.910024
 C         2.699095         1.325733         0.199229
 O         1.948843         0.635808         1.194481
 H        -0.412404        -1.647534         0.265042
 H        -0.760210         0.062998         0.636449
 H        -0.558302        -0.584808        -0.970601
 H         2.895414        -1.643233         0.315216
 H         2.399271        -1.451654        -1.405494
 H         5.076551         1.093395        -1.742886
 H         5.298478         0.567739        -0.055230
 H         5.337357        -0.643674        -1.439804
 H         1.089321         2.006424        -1.014411
 H         3.077332         2.330527         0.448960
