19
Iteration:  1016charge 0 multiplicity 1
 C        -0.050826        -0.731483         0.123683
 C         1.293171         0.015074        -0.006992
 C         2.550954        -0.886568        -0.483686
 C         3.421266         0.284110        -0.787881
 C         4.852876         0.152701        -1.041077
 O         2.618241         0.789568        -1.927340
 C         1.699731         1.314477        -0.942698
 C         2.703706         1.427671         0.193685
 O         1.784631         0.661288         1.146793
 H        -0.055838        -1.612070         0.748584
 H        -0.758031         0.076545         0.350794
 H        -0.239579        -1.020891        -0.972966
 H         2.955835        -1.585370         0.237931
 H         2.352018        -1.482385        -1.478359
 H         5.492648         1.026732        -1.429702
 H         5.263791        -0.184673        -0.182743
 H         5.048996        -0.661804        -1.792022
 H         0.832962         1.922818        -1.224385
 H         3.349072         2.234140         0.666542
