19
Iteration:   960charge 0 multiplicity 1
 C        -0.094209        -0.616948         0.256764
 C         1.316788        -0.094730        -0.060608
 C         2.537403        -0.919792        -0.548548
 C         3.399682         0.292225        -0.781055
 C         4.896496         0.220861        -0.829612
 O         2.596396         0.887429        -2.074918
 C         1.692722         1.269263        -1.041471
 C         2.633853         1.293201         0.184816
 O         1.883351         0.599104         1.108397
 H        -0.103631        -1.524620         0.867032
 H        -0.456914         0.241834         0.958707
 H        -0.604455        -0.638867        -0.720940
 H         3.027322        -1.673078         0.081342
 H         2.459754        -1.468331        -1.590453
 H         5.324246         1.125166        -1.451463
 H         5.338079         0.189335         0.116898
 H         5.112903        -0.734211        -1.415777
 H         0.819955         1.943405        -1.101345
 H         3.154676         2.257863         0.639191
