19
Iteration:  4445
 C        -0.148057        -0.669579         0.147217
 C         1.324751        -0.160297        -0.015528
 C         2.548497        -1.036413        -0.462836
 C         3.448078         0.331004        -0.838858
 C         4.942134         0.230511        -1.049466
 O         2.698680         0.890847        -1.973416
 C         1.623043         1.294550        -0.849628
 C         2.641180         1.348099         0.166750
 O         1.819853         0.684774         1.138362
 H        -0.320584        -1.376730         0.977271
 H        -0.714752         0.215353         0.425314
 H        -0.672496        -0.926794        -0.775567
 H         3.052937        -1.768753         0.208764
 H         2.309896        -1.614797        -1.421532
 H         5.295031         1.027400        -1.769891
 H         5.451126         0.391659        -0.065720
 H         5.143860        -0.786285        -1.422413
 H         0.836593         2.039904        -1.094612
 H         3.111696         2.368976         0.219436
