19
Iteration:  1747
 C        -0.036632        -0.671717         0.035623
 C         1.336996        -0.094241        -0.099764
 C         2.588111        -0.934178        -0.421459
 C         3.424428         0.262485        -0.735272
 C         4.856940         0.138895        -1.079149
 O         2.541849         0.900967        -1.902830
 C         1.674816         1.208197        -0.903351
 C         2.687475         1.422188         0.206137
 O         1.833560         0.720836         1.135701
 H        -0.036387        -1.518042         0.782115
 H        -0.762157         0.093041         0.391331
 H        -0.449954        -1.004763        -0.905586
 H         2.866637        -1.396886         0.504496
 H         2.556414        -1.850961        -1.196910
 H         5.307541         0.879978        -1.745495
 H         5.467922         0.235930        -0.199641
 H         5.058671        -0.914843        -1.524375
 H         0.860554         1.972655        -1.221828
 H         3.078612         2.415173         0.449413
