19
Iteration:  1473
 C        -0.029576        -0.667975         0.292090
 C         1.299746        -0.061295        -0.012986
 C         2.506879        -0.898839        -0.500206
 C         3.435153         0.362965        -0.793995
 C         4.959818         0.096158        -0.860952
 O         2.630541         0.901081        -1.997918
 C         1.601922         1.189404        -1.040391
 C         2.652147         1.410711         0.089990
 O         1.842273         0.679998         1.062786
 H         0.134772        -1.533810         0.965659
 H        -0.743174        -0.095690         0.852311
 H        -0.522605        -1.229991        -0.564921
 H         2.854464        -1.763855         0.011610
 H         2.267873        -1.206944        -1.640003
 H         5.516200         1.081323        -0.798172
 H         5.156892        -0.605179        -0.049422
 H         5.205366        -0.402559        -1.797486
 H         0.739400         1.729633        -1.407632
 H         3.056185         2.399130         0.393259
