19
Iteration:  2952charge 0 multiplicity 1
 C        -0.037230        -0.660973         0.161681
 C         1.334600        -0.054008         0.041288
 C         2.503738        -0.889815        -0.445903
 C         3.446706         0.351307        -0.828699
 C         4.889535         0.063913        -0.966648
 O         2.652749         0.861144        -1.969586
 C         1.586435         1.161724        -1.020443
 C         2.715952         1.423932         0.152935
 O         1.835216         0.735794         1.163528
 H        -0.273312        -1.193663         1.036582
 H        -0.918302         0.052586         0.001293
 H        -0.163434        -1.449842        -0.620168
 H         2.940182        -1.708068         0.185643
 H         2.221836        -1.349161        -1.488121
 H         5.341737         1.039625        -0.877578
 H         5.110317        -0.694741        -0.265458
 H         4.997042        -0.218433        -2.047853
 H         0.758139         1.775703        -1.526161
 H         3.248025         2.283971         0.463615
