19
Iteration:  2793charge 0 multiplicity 1
 C        -0.081053        -0.690077         0.278938
 C         1.248226        -0.023089        -0.090179
 C         2.485433        -0.950028        -0.499604
 C         3.371274         0.320024        -0.826526
 C         4.928905         0.167825        -1.002998
 O         2.703561         0.796274        -1.879442
 C         1.682322         1.224634        -1.031790
 C         2.629207         1.395600         0.172804
 O         1.823090         0.739849         1.095278
 H         0.218039        -1.314657         1.219321
 H        -0.783275         0.162180         0.523401
 H        -0.413410        -1.262916        -0.578830
 H         2.777524        -1.753859         0.189820
 H         2.380314        -1.379449        -1.505198
 H         5.501159         1.093801        -1.111223
 H         5.517844        -0.462630        -0.245603
 H         5.183638        -0.408242        -1.867624
 H         1.136229         1.940648        -1.587550
 H         3.220449         2.306835         0.592673
