19
Iteration:  2512charge 0 multiplicity 1
 C        -0.056327        -0.708146         0.201528
 C         1.331434        -0.054337        -0.042822
 C         2.410133        -0.910461        -0.583474
 C         3.402544         0.301612        -0.768721
 C         4.961099         0.083867        -0.924207
 O         2.611867         0.968496        -1.932275
 C         1.632628         1.253558        -0.960469
 C         2.666272         1.359351         0.092408
 O         1.903408         0.667040         1.109123
 H         0.001101        -1.408295         1.131583
 H        -0.809841         0.063624         0.261266
 H        -0.467027        -1.407282        -0.571701
 H         2.731046        -1.558455         0.298733
 H         2.079755        -1.390137        -1.413090
 H         5.380869         1.088514        -1.180414
 H         5.502269        -0.323769         0.023277
 H         5.113223        -0.681743        -1.641040
 H         1.090227         2.119023        -1.168864
 H         3.302833         2.265509         0.346262
