19
Iteration:   740
 C        -0.093976        -0.679330         0.065559
 C         1.379929        -0.126923        -0.178048
 C         2.518330        -0.987051        -0.467129
 C         3.422871         0.301711        -0.833557
 C         4.862402         0.187403        -1.063896
 O         2.642383         0.871855        -1.914672
 C         1.698518         1.270106        -0.854338
 C         2.593595         1.424625         0.278145
 O         1.885204         0.699761         1.167468
 H        -0.251859        -1.443088         0.821959
 H        -0.861323         0.160135         0.337623
 H        -0.429638        -0.961392        -0.844742
 H         2.738498        -1.606495         0.526043
 H         2.327486        -1.626199        -1.259140
 H         5.374389         1.078262        -1.367522
 H         5.450258        -0.256607        -0.166121
 H         5.042764        -0.509527        -1.887470
 H         0.823218         1.854359        -1.136203
 H         3.111477         2.316480         0.660450
