19
Iteration:   579
 C        -0.026777        -0.666314         0.050059
 C         1.283568        -0.098974        -0.141211
 C         2.483119        -0.944919        -0.439693
 C         3.404918         0.356061        -0.739230
 C         4.930377         0.196284        -1.020219
 O         2.614606         0.936386        -1.905879
 C         1.637160         1.223441        -0.892069
 C         2.668542         1.382067         0.172622
 O         1.885917         0.600035         1.128686
 H        -0.115628        -1.441603         0.796483
 H        -0.729142         0.033925         0.617741
 H        -0.472280        -1.040269        -0.846371
 H         2.702851        -1.776615         0.352691
 H         2.464898        -1.330904        -1.439455
 H         5.463892         1.012460        -1.517280
 H         5.464563        -0.050252        -0.079790
 H         4.918242        -0.739377        -1.574495
 H         0.833263         1.927315        -1.135296
 H         3.233264         2.289441         0.468084
