19
Iteration:  2740
 C        -0.128081        -0.580461        -0.053465
 C         1.355254        -0.025488         0.029031
 C         2.574557        -0.899133        -0.372702
 C         3.466637         0.292736        -0.746977
 C         4.879091         0.215900        -1.118818
 O         2.535490         0.699053        -1.922749
 C         1.639538         1.195853        -0.896348
 C         2.683019         1.356513         0.171283
 O         1.908961         0.704060         1.177665
 H        -0.621802        -0.960013         0.913217
 H        -0.561210         0.352269        -0.360729
 H        -0.157411        -1.230430        -0.899323
 H         2.708996        -1.511567         0.629685
 H         2.355839        -1.614694        -1.204999
 H         5.283770         1.217193        -1.427375
 H         5.545938        -0.282660        -0.336437
 H         5.092199        -0.363409        -1.941806
 H         0.814055         1.784288        -1.217492
 H         3.131788         2.318985         0.718772
