19
Iteration:  2491
 C        -0.076454        -0.623367         0.364278
 C         1.232447        -0.028632        -0.086939
 C         2.477528        -0.930649        -0.627149
 C         3.436665         0.279724        -0.876668
 C         4.866060         0.193582        -0.894232
 O         2.702563         0.889106        -2.004333
 C         1.659842         1.253772        -1.023396
 C         2.668653         1.332226         0.217855
 O         1.885390         0.618705         1.099335
 H         0.133599        -1.653776         0.966173
 H        -0.712179         0.152343         0.802082
 H        -0.585988        -0.963432        -0.609298
 H         2.859957        -1.782577         0.070222
 H         2.289745        -1.237030        -1.596009
 H         5.431097         1.160671        -0.929876
 H         5.121066        -0.272985         0.138313
 H         5.170298        -0.577461        -1.548236
 H         0.871362         1.911871        -1.262416
 H         3.181391         2.254931         0.645167
