19
Iteration:  3628charge 0 multiplicity 1
 C        -0.099904        -0.662688         0.103386
 C         1.331041        -0.087451        -0.116965
 C         2.513963        -0.917118        -0.539836
 C         3.331800         0.291038        -0.727350
 C         4.890694         0.192865        -0.991455
 O         2.611216         0.874207        -1.868279
 C         1.669341         1.312380        -0.905641
 C         2.707988         1.407292         0.145892
 O         1.941069         0.552029         1.127971
 H        -0.352191        -1.492891         0.782221
 H        -0.736304         0.219375         0.426169
 H        -0.389340        -0.980004        -0.851966
 H         2.792285        -1.594381         0.320764
 H         2.293890        -1.269659        -1.534695
 H         5.223168         1.215901        -1.323089
 H         5.369203        -0.104568        -0.083852
 H         5.162320        -0.545760        -1.798155
 H         0.831472         1.871506        -1.328476
 H         3.176590         2.256988         0.712771
