19
Iteration:  2758charge 0 multiplicity 1
 C        -0.092015        -0.521278        -0.010249
 C         1.299333        -0.102222        -0.025624
 C         2.617794        -0.979367        -0.267429
 C         3.315299         0.261765        -0.846888
 C         4.870271         0.223431        -1.072764
 O         2.587198         0.820902        -1.945392
 C         1.680655         1.193330        -0.942356
 C         2.707344         1.361017         0.181957
 O         1.889479         0.674906         1.164421
 H        -0.410356        -0.950601         0.955576
 H        -0.899095         0.287915        -0.210824
 H        -0.279652        -1.390752        -0.679720
 H         3.079662        -1.164146         0.645484
 H         2.527175        -1.812839        -1.012121
 H         5.338566         1.179032        -1.129835
 H         5.262517        -0.366428        -0.242344
 H         5.134144        -0.257111        -2.108762
 H         0.903260         1.920689        -1.283684
 H         3.274431         2.213748         0.454066
