19
Iteration:  1106
 C        -0.067867        -0.661896         0.276926
 C         1.323651        -0.061871        -0.044410
 C         2.458225        -0.907400        -0.491444
 C         3.381812         0.272704        -0.773375
 C         4.889127         0.239604        -0.957821
 O         2.637629         0.855358        -1.985677
 C         1.709440         1.251795        -0.984389
 C         2.647351         1.329502         0.134286
 O         1.880014         0.660197         1.077647
 H        -0.110474        -1.521178         1.028750
 H        -0.762557         0.122930         0.410263
 H        -0.332348        -1.161234        -0.690132
 H         2.994984        -1.743564         0.128159
 H         2.288152        -1.364939        -1.468071
 H         5.398546         1.183400        -0.966357
 H         5.119818        -0.284719        -0.031638
 H         5.189254        -0.353200        -1.837352
 H         0.948685         2.009154        -1.379995
 H         3.224829         2.152436         0.505545
