19
Iteration:   699
 C        -0.054096        -0.768558        -0.032338
 C         1.231645        -0.038021        -0.069998
 C         2.497359        -0.889296        -0.390966
 C         3.432287         0.321217        -0.780552
 C         4.875882         0.155747        -1.169916
 O         2.639300         0.856975        -1.912391
 C         1.712481         1.304968        -0.882976
 C         2.713480         1.390327         0.296821
 O         1.830159         0.676366         1.170597
 H        -0.119642        -1.384733         0.879979
 H        -0.948402        -0.044615         0.058128
 H        -0.128103        -1.504245        -0.875580
 H         2.762160        -1.344220         0.593592
 H         2.478878        -1.727559        -1.080053
 H         5.468438         1.114034        -1.132247
 H         5.336312        -0.583265        -0.528650
 H         4.816162        -0.311435        -2.181755
 H         1.003480         2.093951        -1.124670
 H         3.252514         2.282633         0.712167
