19
Iteration:  2449
 C        -0.222969        -0.553009         0.148953
 C         1.265629        -0.075664        -0.019773
 C         2.526134        -0.962915        -0.511073
 C         3.426335         0.319639        -0.826996
 C         4.920379         0.224152        -0.994796
 O         2.613193         0.865355        -1.943642
 C         1.667210         1.189003        -0.964852
 C         2.692978         1.320154         0.171468
 O         1.954765         0.618186         1.125761
 H        -0.131169        -1.646412         0.565755
 H        -0.684677         0.025064         0.923442
 H        -0.638894        -0.617832        -0.908834
 H         2.752046        -1.542723         0.507553
 H         2.303599        -1.644815        -1.320338
 H         5.484669         1.207954        -1.086399
 H         5.343953        -0.091937        -0.042532
 H         5.263475        -0.346924        -1.818876
 H         1.017277         1.997261        -1.249908
 H         3.236923         2.220447         0.567279
