19
Iteration:  1480charge 0 multiplicity 1
 C        -0.042539        -0.709044         0.295988
 C         1.310155        -0.093412        -0.090941
 C         2.469777        -0.907835        -0.535810
 C         3.451807         0.354405        -0.813630
 C         4.953574         0.112184        -0.861488
 O         2.636375         0.849988        -2.020190
 C         1.595276         1.227423        -1.014573
 C         2.615899         1.442492         0.113667
 O         1.849340         0.712060         1.116014
 H         0.191962        -1.515647         0.977273
 H        -0.634309         0.122005         0.827947
 H        -0.461718        -1.081830        -0.648216
 H         2.775045        -1.725526         0.120016
 H         2.403921        -1.293231        -1.510063
 H         5.519981         1.024272        -0.903764
 H         5.402602        -0.547891         0.028833
 H         5.222310        -0.378437        -1.793992
 H         0.728710         1.833457        -1.249229
 H         3.171700         2.295567         0.582316
