19
Iteration:  4154charge 0 multiplicity 1
 C        -0.031784        -0.653898         0.214379
 C         1.290896        -0.045212        -0.040095
 C         2.559693        -0.903717        -0.494540
 C         3.439746         0.289834        -0.833356
 C         4.862078         0.153838        -0.906907
 O         2.628401         0.849731        -1.920446
 C         1.642846         1.186024        -1.011157
 C         2.608351         1.510754         0.128429
 O         1.891473         0.604482         1.043339
 H         0.034244        -1.552620         0.960890
 H        -0.810559        -0.103105         0.674471
 H        -0.541770        -0.871979        -0.731345
 H         2.890961        -1.660019         0.184846
 H         2.417721        -1.220367        -1.550698
 H         5.354382         1.074576        -0.516713
 H         5.198827        -0.570630        -0.078689
 H         5.261220        -0.042081        -1.930173
 H         0.665623         1.681669        -1.204319
 H         3.094334         2.381427         0.627643
