19
Iteration:   316charge 0 multiplicity 1
 C         0.010263        -0.637208         0.204573
 C         1.279680        -0.087709        -0.114994
 C         2.559660        -0.972438        -0.521185
 C         3.370088         0.260250        -0.800561
 C         4.831000         0.280505        -0.895734
 O         2.658487         0.849230        -1.946932
 C         1.631928         1.264066        -1.058093
 C         2.619961         1.367710         0.210957
 O         1.886905         0.625310         1.098509
 H         0.197315        -1.370372         1.014565
 H        -0.703092         0.211247         0.544638
 H        -0.315628        -1.124535        -0.683302
 H         2.806934        -1.588603         0.437522
 H         2.293986        -1.532992        -1.360525
 H         5.349182         1.151741        -0.497131
 H         5.234574        -0.737024        -0.536464
 H         5.080135         0.370669        -1.967426
 H         0.890327         1.992582        -1.309635
 H         3.151323         2.165620         0.717190
