19
Iteration:  4458charge 0 multiplicity 1
 C        -0.099196        -0.674945         0.211063
 C         1.282654        -0.122788        -0.076813
 C         2.556326        -1.000139        -0.491479
 C         3.354197         0.317503        -0.840992
 C         4.856523         0.190180        -0.960693
 O         2.679857         0.994555        -1.938171
 C         1.628750         1.238707        -0.966382
 C         2.713973         1.349756         0.109773
 O         1.867775         0.669510         1.124183
 H        -0.060653        -1.682523         0.744920
 H        -0.652077        -0.004134         0.729081
 H        -0.480750        -0.938308        -0.740379
 H         2.885383        -1.384618         0.478371
 H         2.463793        -1.759119        -1.290714
 H         5.242179         0.747412        -1.776917
 H         5.384882         0.425698         0.040427
 H         5.082811        -0.865964        -1.243259
 H         0.895532         1.944676        -1.230629
 H         3.299831         2.154791         0.584388
