19
Iteration:  2850
 C        -0.060219        -0.686504         0.189286
 C         1.294951        -0.043320        -0.037243
 C         2.492105        -0.866287        -0.480623
 C         3.383888         0.296509        -0.894446
 C         4.855917         0.068840        -0.828354
 O         2.621155         0.846285        -2.057073
 C         1.670553         1.213668        -0.943463
 C         2.642331         1.489697         0.119818
 O         1.934841         0.653572         1.116816
 H         0.006785        -1.701296         0.770103
 H        -0.641644        -0.049356         0.831039
 H        -0.665646        -0.812736        -0.748855
 H         3.085742        -1.323493         0.379916
 H         2.554278        -1.644643        -1.221942
 H         5.286877         1.006869        -1.341806
 H         5.203141         0.084776         0.216129
 H         5.066211        -0.752039        -1.379880
 H         0.906916         1.924690        -1.243454
 H         3.288801         2.434365         0.364139
