19
Iteration:  4755charge 0 multiplicity 1
 C        -0.000794        -0.608974         0.102309
 C         1.328773        -0.078348        -0.095007
 C         2.529695        -0.923964        -0.466777
 C         3.428332         0.261004        -0.790639
 C         4.856619         0.162118        -1.063845
 O         2.608871         0.877132        -1.941095
 C         1.690564         1.246849        -0.873567
 C         2.691949         1.336494         0.273197
 O         1.776948         0.633467         1.100064
 H         0.063031        -1.071103         1.090707
 H        -0.783162         0.264857         0.243855
 H        -0.254700        -1.138345        -0.849370
 H         3.010893        -1.591429         0.282844
 H         2.458273        -1.415079        -1.467972
 H         5.242356         1.223639        -1.075959
 H         5.317517        -0.300383        -0.196693
 H         5.111061        -0.429251        -1.914122
 H         0.764928         1.956621        -1.128296
 H         2.935813         2.419679         0.533709
