19
Iteration:   241
 C        -0.067153        -0.692414         0.075979
 C         1.250871        -0.059428        -0.088875
 C         2.560667        -0.891123        -0.480030
 C         3.415458         0.329387        -0.773321
 C         4.905396         0.202395        -1.037004
 O         2.614466         0.851473        -1.888905
 C         1.655509         1.243783        -0.991946
 C         2.649966         1.359096         0.236827
 O         1.875506         0.660516         1.152083
 H         0.196820        -1.549631         0.753928
 H        -0.981791        -0.070430         0.493797
 H        -0.329863        -1.163858        -0.865225
 H         2.848943        -1.305487         0.599349
 H         2.538561        -1.651652        -1.223654
 H         5.410771         1.135911        -1.274017
 H         5.436697        -0.455476        -0.200786
 H         5.015364        -0.349189        -1.968765
 H         0.846255         1.863008        -1.336736
 H         3.071120         2.293824         0.603060
