19
Iteration:  1705charge 0 multiplicity 1
 C        -0.139174        -0.660637        -0.008924
 C         1.282889        -0.061736        -0.066311
 C         2.534882        -0.983245        -0.409693
 C         3.498900         0.278656        -0.607820
 C         4.853054         0.280922        -1.111858
 O         2.566133         0.776325        -1.960231
 C         1.738079         1.237909        -0.941500
 C         2.707911         1.389732         0.217300
 O         1.883190         0.682218         1.170722
 H        -0.282852        -1.347139         0.870062
 H        -0.879886         0.158322         0.227107
 H        -0.272325        -1.023514        -0.970420
 H         2.765155        -1.514610         0.501149
 H         2.503083        -1.633372        -1.228217
 H         4.940105         1.179250        -1.722974
 H         5.670303         0.186104        -0.367552
 H         4.904126        -0.620407        -1.850548
 H         0.862752         1.999165        -1.048340
 H         3.226611         2.331890         0.463098
