19
Iteration:   936
 C        -0.084644        -0.579139         0.158901
 C         1.274437        -0.059051        -0.076135
 C         2.460768        -0.943892        -0.535117
 C         3.424504         0.291562        -0.822588
 C         4.926540         0.235367        -0.956999
 O         2.638865         0.849674        -1.863406
 C         1.624999         1.192085        -0.965477
 C         2.683283         1.342396         0.117332
 O         1.900034         0.602992         1.105617
 H         0.156423        -1.397703         0.925993
 H        -0.630375         0.223034         0.794076
 H        -0.533240        -0.886791        -0.754969
 H         2.848510        -1.713929         0.206670
 H         2.426574        -1.452843        -1.482259
 H         5.237682         1.235173        -1.122383
 H         5.289644         0.027826         0.113977
 H         5.359170        -0.441329        -1.684703
 H         0.868290         1.888149        -1.361112
 H         2.978375         2.354467         0.537202
