19
Iteration:  1795
 C        -0.007316        -0.705939         0.273871
 C         1.318121        -0.082304        -0.155432
 C         2.500840        -0.979499        -0.566250
 C         3.357513         0.241708        -0.830659
 C         4.851793         0.141120        -0.855785
 O         2.638851         0.978769        -1.975680
 C         1.645564         1.275466        -0.955425
 C         2.645901         1.345194         0.139460
 O         1.903135         0.718015         1.062852
 H         0.193709        -1.393879         1.122694
 H        -0.681079         0.025952         0.799335
 H        -0.686245        -1.128291        -0.504199
 H         2.791211        -1.776603         0.217358
 H         2.274787        -1.467187        -1.411983
 H         5.215144         1.205929        -0.959827
 H         5.298536        -0.179356         0.215243
 H         5.414238        -0.451241        -1.586576
 H         0.759549         1.861137        -1.245902
 H         3.342062         2.167167         0.439876
