19
Iteration:  2775charge 0 multiplicity 1
 C        -0.079944        -0.598273         0.159028
 C         1.328960        -0.052071        -0.041134
 C         2.511394        -0.919452        -0.367343
 C         3.489052         0.229618        -0.717539
 C         4.899838         0.174779        -1.043255
 O         2.630154         0.881331        -2.020645
 C         1.659039         1.217205        -0.983267
 C         2.679965         1.324273         0.121962
 O         1.818148         0.677132         1.101450
 H        -0.191800        -1.064096         1.147732
 H        -0.802821         0.169059         0.096041
 H        -0.338078        -1.309834        -0.647623
 H         2.788643        -1.546976         0.593853
 H         2.409638        -1.708815        -1.101801
 H         5.211324         1.262315        -0.942976
 H         5.438114        -0.329658        -0.230189
 H         4.873875        -0.286979        -2.040468
 H         0.768940         1.880083        -1.077037
 H         3.155240         2.321941         0.452088
