19
Iteration:    71charge 0 multiplicity 1
 C        -0.047075        -0.647823        -0.003366
 C         1.340479        -0.115262        -0.044032
 C         2.594219        -0.861845        -0.466430
 C         3.400357         0.315640        -0.736105
 C         4.785022         0.187781        -1.034090
 O         2.622526         0.951676        -1.926556
 C         1.664224         1.189694        -0.885717
 C         2.664612         1.312601         0.224188
 O         1.861524         0.616746         1.152606
 H        -0.164446        -1.529214         0.623930
 H        -0.951489        -0.011072         0.144740
 H        -0.204440        -1.044404        -1.021800
 H         3.052588        -1.517563         0.274924
 H         2.405097        -1.459137        -1.397258
 H         5.023096        -0.884659        -1.215069
 H         4.991234         0.759746        -1.973596
 H         5.491858         0.559168        -0.264406
 H         0.970041         2.047610        -1.022108
 H         3.162427         2.252364         0.676572
