19
Iteration:   912charge 0 multiplicity 1
 C        -0.101189        -0.660515         0.090711
 C         1.279232        -0.132171        -0.014969
 C         2.486064        -0.981825        -0.424498
 C         3.390792         0.326008        -0.792706
 C         4.852485         0.221230        -1.030867
 O         2.660513         0.911860        -2.036951
 C         1.704460         1.274644        -0.938191
 C         2.752695         1.350070         0.164735
 O         1.835070         0.647562         1.185503
 H        -0.108059        -1.359024         1.043807
 H        -0.753886         0.208867         0.291478
 H        -0.261621        -1.158072        -0.873357
 H         2.805591        -1.476761         0.546303
 H         2.446465        -1.765986        -1.120972
 H         5.208058         1.182275        -1.028203
 H         5.467712        -0.304089        -0.158547
 H         4.956342        -0.269248        -1.980328
 H         0.959270         1.966787        -1.345306
 H         3.317515         2.092506         0.683990
