19
Iteration:   244
 C        -0.019031        -0.671997         0.079710
 C         1.230701        -0.061043        -0.083965
 C         2.556443        -0.901345        -0.453565
 C         3.400464         0.355432        -0.780129
 C         4.902156         0.197342        -1.017244
 O         2.634003         0.849047        -1.911700
 C         1.633602         1.234125        -0.990815
 C         2.647339         1.340258         0.239306
 O         1.877671         0.653600         1.136095
 H         0.174011        -1.518282         0.755953
 H        -0.867181        -0.119405         0.504130
 H        -0.372552        -1.152281        -0.815031
 H         2.835840        -1.310305         0.486630
 H         2.443857        -1.639392        -1.263142
 H         5.440349         1.133364        -1.192182
 H         5.408243        -0.453492        -0.269475
 H         4.983037        -0.290909        -1.958028
 H         0.807302         1.924054        -1.307432
 H         3.082382         2.309148         0.639458
