19
Iteration:  4169
 C         0.047185        -0.685699         0.218929
 C         1.339546        -0.122435        -0.122176
 C         2.542389        -0.936851        -0.571212
 C         3.385400         0.340256        -0.833874
 C         4.955333         0.122883        -0.868578
 O         2.597596         0.898625        -2.010132
 C         1.602433         1.247093        -0.945181
 C         2.601242         1.369890         0.185954
 O         1.802567         0.730437         1.128854
 H         0.178729        -1.448889         0.908118
 H        -0.478747         0.186009         0.702808
 H        -0.506711        -1.152041        -0.587114
 H         2.899699        -1.526968         0.352332
 H         2.314920        -1.662749        -1.365403
 H         5.463883         1.031544        -0.628220
 H         5.154927        -0.681461        -0.129109
 H         5.283386        -0.242063        -1.877160
 H         0.903348         1.933184        -1.349355
 H         3.039871         2.317697         0.390517
