19
Iteration:  1654charge 0 multiplicity 1
 C        -0.115537        -0.702780         0.275877
 C         1.276658        -0.143964        -0.031966
 C         2.576523        -0.964299        -0.467676
 C         3.447516         0.337438        -0.791382
 C         4.909075         0.144228        -0.848877
 O         2.623932         0.965902        -2.058330
 C         1.597227         1.304950        -1.000086
 C         2.636099         1.320906         0.054817
 O         1.897737         0.673540         1.065086
 H         0.053096        -1.332667         1.147253
 H        -0.675635         0.214040         0.645052
 H        -0.625899        -1.107614        -0.625166
 H         2.905283        -1.766660         0.400958
 H         2.518939        -1.487312        -1.424516
 H         5.436090         1.053774        -0.651691
 H         5.260964        -0.592637        -0.038643
 H         5.163874        -0.199672        -1.802584
 H         0.795217         2.000523        -1.162976
 H         3.232022         2.268386         0.195488
