19
Iteration:  1709charge 0 multiplicity 1
 C        -0.143153        -0.666973        -0.005999
 C         1.292398        -0.042591        -0.029251
 C         2.539854        -0.944014        -0.393100
 C         3.494473         0.267404        -0.611705
 C         4.863665         0.263009        -1.144977
 O         2.546800         0.813522        -1.973501
 C         1.781084         1.205505        -0.976317
 C         2.698351         1.369759         0.249079
 O         1.869943         0.679940         1.178584
 H        -0.380054        -1.366334         0.783735
 H        -0.865853         0.134887         0.243635
 H        -0.271237        -1.082327        -1.067108
 H         2.773061        -1.481544         0.633485
 H         2.450378        -1.622536        -1.266497
 H         4.826898         1.140371        -1.779368
 H         5.657049         0.186702        -0.331650
 H         4.997268        -0.551868        -1.777537
 H         0.953736         1.831727        -1.189002
 H         3.215610         2.323863         0.512466
