19
Iteration:   350
 C        -0.075718        -0.643342         0.043289
 C         1.303775        -0.061188        -0.003250
 C         2.582517        -0.849815        -0.404193
 C         3.470008         0.273582        -0.805538
 C         4.963708         0.242780        -1.129268
 O         2.639606         0.882958        -1.937007
 C         1.618743         1.160951        -0.915095
 C         2.577061         1.340362         0.218820
 O         1.829463         0.652603         1.152067
 H        -0.370647        -1.408416         0.806543
 H        -1.087842         0.025252         0.027779
 H        -0.124191        -1.220614        -0.844593
 H         2.898491        -1.568581         0.526843
 H         2.338340        -1.630656        -1.043131
 H         5.555437         1.119156        -0.902722
 H         5.567751        -0.614484        -0.487994
 H         4.841554        -0.302240        -2.052245
 H         1.019124         2.037186        -1.112169
 H         2.919901         2.274256         0.674108
