19
Iteration:  2410charge 0 multiplicity 1
 C        -0.021495        -0.603719        -0.071162
 C         1.351366        -0.060757        -0.061635
 C         2.500364        -1.001791        -0.383242
 C         3.399784         0.258113        -0.761925
 C         4.854928         0.134825        -1.204583
 O         2.572486         0.887106        -1.796498
 C         1.712520         1.253731        -0.869103
 C         2.680160         1.406636         0.255617
 O         1.860845         0.698089         1.166960
 H        -0.121587        -1.429514         0.627055
 H        -0.946087        -0.013603         0.226477
 H        -0.248498        -0.975746        -1.059194
 H         2.939342        -1.354897         0.451194
 H         2.560801        -1.820157        -1.182496
 H         5.197334         1.058656        -1.670016
 H         5.374333        -0.247333        -0.327384
 H         4.902850        -0.617577        -2.106029
 H         0.883164         1.950865        -1.291287
 H         3.136313         2.281440         0.658457
