19
Iteration:  2906
 C        -0.135655        -0.544821         0.064027
 C         1.252887        -0.050554        -0.004868
 C         2.526068        -0.949077        -0.264476
 C         3.442550         0.248359        -0.714560
 C         4.873165         0.309507        -1.196159
 O         2.689296         0.782636        -1.999909
 C         1.759328         1.208341        -1.002191
 C         2.668845         1.265932         0.215593
 O         1.787931         0.665263         1.173907
 H        -0.352561        -1.185716         0.961073
 H        -0.806521         0.331831         0.095213
 H        -0.392111        -1.173150        -0.859945
 H         2.991140        -1.314385         0.714887
 H         2.581881        -1.655125        -1.119148
 H         5.147041         1.331730        -1.597666
 H         5.430412        -0.099991        -0.363210
 H         5.092854        -0.399228        -1.955602
 H         0.933324         1.942268        -1.275376
 H         3.433402         2.033899         0.540537
