19
Iteration:  1991charge 0 multiplicity 1
 C         0.021616        -0.550413         0.253935
 C         1.328223        -0.071738        -0.071918
 C         2.356210        -1.011166        -0.604733
 C         3.367407         0.243042        -0.840769
 C         4.879404         0.274675        -0.896581
 O         2.649847         0.973353        -1.915349
 C         1.655524         1.206756        -0.967190
 C         2.682816         1.331199         0.153773
 O         1.926504         0.541548         1.095756
 H        -0.107701        -1.178029         1.165479
 H        -0.719847         0.280541         0.329632
 H        -0.372460        -1.087775        -0.613864
 H         2.902845        -1.850738         0.098370
 H         2.191630        -1.436097        -1.556625
 H         5.209907         1.294810        -0.904832
 H         5.180876        -0.361911        -0.035425
 H         5.269684        -0.148102        -1.757689
 H         0.786433         1.806119        -1.158945
 H         3.287868         2.208277         0.317171
