19
Iteration:  2374
 C        -0.065396        -0.685253         0.088656
 C         1.274912        -0.030155        -0.031181
 C         2.511802        -0.889617        -0.475475
 C         3.397893         0.308217        -0.793635
 C         4.840637         0.074554        -1.157496
 O         2.662530         0.956420        -1.878948
 C         1.730906         1.276605        -0.912484
 C         2.703108         1.353111         0.259283
 O         1.791115         0.627934         1.159078
 H        -0.103460        -1.234004         0.963828
 H        -0.856042         0.002478        -0.129854
 H         0.011856        -1.495106        -0.673939
 H         3.048609        -1.425370         0.379652
 H         2.404073        -1.503507        -1.371687
 H         5.478872         0.973809        -1.426724
 H         5.462477        -0.342473        -0.364038
 H         4.867144        -0.723308        -1.911659
 H         0.948392         2.010823        -1.217511
 H         3.091756         2.338765         0.634356
