19
Iteration:  4093
 C        -0.101417        -0.636068         0.037369
 C         1.282399        -0.055431        -0.059764
 C         2.578055        -0.904933        -0.382775
 C         3.402461         0.333157        -0.737465
 C         4.893494         0.259925        -1.142192
 O         2.636186         0.752377        -1.982680
 C         1.680370         1.256311        -0.893620
 C         2.686034         1.334972         0.237520
 O         1.810251         0.637240         1.192545
 H        -0.189182        -1.365813         0.797362
 H        -0.708901         0.315441         0.222422
 H        -0.301570        -1.039281        -0.972548
 H         2.830354        -1.545513         0.526068
 H         2.541868        -1.596433        -1.251871
 H         5.103683         1.166847        -1.652408
 H         5.554495         0.121686        -0.254313
 H         5.071961        -0.577718        -1.833991
 H         0.955508         1.972286        -1.250402
 H         3.281765         2.091217         0.697421
