19
Iteration:   904
 C        -0.049953        -0.682964         0.014806
 C         1.313260        -0.100717        -0.039344
 C         2.439073        -1.004930        -0.353199
 C         3.406696         0.342440        -0.785536
 C         4.913261         0.196282        -1.077955
 O         2.599195         0.912743        -1.949276
 C         1.693059         1.270962        -0.957652
 C         2.786245         1.313415         0.184333
 O         1.797134         0.675766         1.163550
 H        -0.064968        -1.169574         1.026579
 H        -0.828128         0.189778         0.212568
 H        -0.389227        -1.284621        -0.777524
 H         2.886828        -1.436953         0.606875
 H         2.614099        -1.622634        -1.231243
 H         5.309071         1.205627        -1.091148
 H         5.377619        -0.493165        -0.308674
 H         4.935133        -0.262484        -2.061158
 H         0.878245         1.989709        -1.098090
 H         3.260486         2.290025         0.556845
