19
Iteration:  3942
 C        -0.130336        -0.628168        -0.012045
 C         1.328444        -0.118123        -0.017899
 C         2.563364        -0.915754        -0.420767
 C         3.324771         0.298591        -0.813979
 C         4.814391         0.222630        -1.056296
 O         2.647863         0.827582        -1.889927
 C         1.658515         1.229467        -0.984146
 C         2.682027         1.363131         0.195321
 O         1.951881         0.655040         1.219381
 H        -0.117543        -1.417857         0.768215
 H        -0.778108         0.287786         0.242085
 H        -0.284513        -1.070714        -1.017284
 H         2.913908        -1.282852         0.528287
 H         2.384467        -1.537604        -1.247916
 H         5.363743         1.152112        -0.725451
 H         5.346729        -0.576585        -0.541601
 H         4.908337        -0.049936        -2.165156
 H         0.891504         1.938790        -1.279942
 H         3.225494         2.245760         0.580654
