19
Iteration:    37
 C        -0.076594        -0.632385        -0.035818
 C         1.264547        -0.036397        -0.019558
 C         2.555705        -0.900461        -0.433926
 C         3.457230         0.247172        -0.774813
 C         4.955769         0.243967        -1.161030
 O         2.610426         0.939959        -1.862615
 C         1.684165         1.206458        -0.874615
 C         2.609094         1.250766         0.332248
 O         1.815229         0.614174         1.115466
 H        -0.170979        -1.416287         0.699149
 H        -0.954164         0.101389         0.042323
 H        -0.154472        -1.055798        -0.987664
 H         2.898114        -1.471662         0.458442
 H         2.495094        -1.627275        -1.195165
 H         5.471547        -0.680376        -1.042903
 H         4.970485         0.449329        -2.317932
 H         5.448826         1.022444        -0.655985
 H         0.958955         1.975909        -1.143866
 H         3.166615         2.121862         0.805792
