19
Iteration:  1551charge 0 multiplicity 1
 C        -0.085162        -0.524903        -0.038539
 C         1.323453        -0.077132        -0.033251
 C         2.675830        -0.941548        -0.389024
 C         3.440083         0.290170        -0.753069
 C         4.832258         0.220800        -1.121090
 O         2.601545         0.735684        -1.907022
 C         1.562377         1.145849        -0.863007
 C         2.667091         1.459745         0.251433
 O         1.865277         0.691680         1.137931
 H        -0.244073        -1.301363         0.766889
 H        -0.727878         0.327643         0.100574
 H        -0.243481        -1.160873        -0.946240
 H         3.034114        -1.656590         0.395915
 H         2.510028        -1.574800        -1.338413
 H         5.153650         1.041941        -1.846506
 H         5.350826         0.252494        -0.229764
 H         5.107772        -0.804998        -1.566108
 H         0.642925         1.753924        -1.182892
 H         3.297666         2.244347         0.607206
