19
Iteration:   690
 C        -0.062529        -0.774234        -0.029374
 C         1.347469        -0.021653        -0.084922
 C         2.500121        -0.951990        -0.347620
 C         3.403128         0.293777        -0.748515
 C         4.850582         0.117404        -1.166226
 O         2.600978         0.919771        -1.866372
 C         1.710682         1.301106        -0.900993
 C         2.689863         1.415090         0.229425
 O         1.825073         0.652559         1.169345
 H        -0.023371        -1.178832         0.989603
 H        -0.859796        -0.010501         0.061009
 H        -0.426727        -1.428269        -0.962686
 H         2.979083        -1.384361         0.464975
 H         2.427252        -1.685518        -1.279054
 H         5.488431         1.094949        -1.104934
 H         5.274511        -0.475951        -0.446519
 H         5.167513        -0.190544        -2.196651
 H         1.069170         2.046284        -1.371851
 H         3.153996         2.338896         0.674473
