19
Iteration:  2395
 C        -0.132835        -0.725308        -0.042294
 C         1.246582        -0.041997        -0.056434
 C         2.577777        -0.857876        -0.311286
 C         3.425190         0.316230        -0.790837
 C         4.850540         0.090987        -1.237334
 O         2.681882         0.920371        -1.930077
 C         1.659119         1.303470        -0.869883
 C         2.725565         1.337151         0.267562
 O         1.836732         0.645274         1.228710
 H        -0.163841        -1.418803         0.771265
 H        -0.776619         0.090492        -0.065111
 H        -0.288474        -1.273731        -1.002387
 H         2.747510        -1.355540         0.747331
 H         2.361708        -1.606061        -1.051845
 H         5.300918         1.060931        -1.631572
 H         5.562335        -0.300438        -0.514905
 H         4.836489        -0.690964        -1.967075
 H         0.866188         2.023547        -1.081607
 H         3.375732         2.188565         0.601175
