19
Iteration:   124charge 0 multiplicity 1
 C        -0.032215        -0.703363         0.242545
 C         1.299819        -0.076538        -0.097606
 C         2.503031        -0.934841        -0.614525
 C         3.403853         0.315837        -0.763897
 C         4.860411         0.264236        -0.897978
 O         2.673316         0.909194        -1.923928
 C         1.597757         1.302377        -1.013913
 C         2.736874         1.329870         0.157702
 O         1.835738         0.576288         1.096710
 H        -0.022293        -1.574375         0.879430
 H        -0.725556         0.038853         0.743488
 H        -0.585876        -1.035594        -0.560287
 H         2.727097        -1.587157         0.237825
 H         2.496406        -1.359726        -1.572729
 H         5.080406        -0.178826        -1.817436
 H         5.457460         1.204041        -0.655033
 H         5.184895        -0.473909        -0.226879
 H         0.905755         1.908684        -1.620703
 H         3.245783         2.155705         0.765701
