19
Iteration:  1626
 C         0.077322        -0.676646         0.319591
 C         1.291239        -0.001356        -0.075583
 C         2.442236        -0.909435        -0.562428
 C         3.409036         0.326019        -0.829460
 C         4.847766         0.112342        -0.853722
 O         2.725027         0.837227        -2.078064
 C         1.644748         1.256323        -1.054952
 C         2.561291         1.431912         0.223358
 O         1.837593         0.643929         1.134153
 H         0.513719        -1.449423         0.971313
 H        -0.605401         0.000090         0.748076
 H        -0.414645        -1.245360        -0.525816
 H         2.657111        -1.592389         0.137910
 H         2.286837        -1.525490        -1.535194
 H         5.392498         1.124272        -0.672378
 H         5.259052        -0.539910        -0.123401
 H         5.132836        -0.217332        -1.910543
 H         0.783760         1.796220        -1.489067
 H         3.050707         2.320220         0.584056
