19
Iteration:  1673
 C        -0.053027        -0.602092         0.178118
 C         1.335093        -0.066251        -0.009946
 C         2.507269        -0.922837        -0.472846
 C         3.416003         0.252135        -0.826706
 C         4.894210         0.228378        -0.966318
 O         2.582888         0.897036        -2.037873
 C         1.693387         1.160121        -1.025271
 C         2.663046         1.366021         0.198187
 O         1.850185         0.634463         1.162544
 H        -0.125087        -1.444767         0.919758
 H        -0.778091         0.258385         0.242285
 H        -0.337365        -1.063582        -0.722607
 H         2.979628        -1.407680         0.414164
 H         2.293199        -1.656129        -1.134649
 H         5.342566         1.190613        -0.907883
 H         5.349276        -0.257584        -0.064729
 H         5.261181        -0.361999        -1.875862
 H         0.799423         1.828506        -1.318633
 H         3.155285         2.259828         0.635821
