19
Iteration:  1138charge 0 multiplicity 1
 C        -0.009236        -0.675162         0.270562
 C         1.264582        -0.066057        -0.082400
 C         2.467060        -0.912353        -0.483277
 C         3.408619         0.240404        -0.798774
 C         4.895842         0.178311        -0.863103
 O         2.615796         0.966152        -2.026353
 C         1.633289         1.283912        -0.999581
 C         2.645591         1.306912         0.121244
 O         1.916230         0.638097         1.057542
 H         0.221205        -1.635076         0.811990
 H        -0.629854        -0.071519         0.863720
 H        -0.496743        -0.786844        -0.720859
 H         2.794728        -1.506191         0.455742
 H         2.370869        -1.581002        -1.346745
 H         5.460765         1.044115        -1.256542
 H         5.246627         0.007125         0.072546
 H         5.254892        -0.779599        -1.294624
 H         0.745781         1.980492        -1.227984
 H         3.191206         2.228422         0.248368
