19
Iteration:  2779charge 0 multiplicity 1
 C        -0.058412        -0.607204         0.184700
 C         1.313948        -0.077094        -0.041564
 C         2.480954        -0.929306        -0.412521
 C         3.456601         0.241450        -0.688305
 C         4.946745         0.183779        -1.023653
 O         2.642109         0.868080        -2.001721
 C         1.658545         1.231374        -0.998288
 C         2.691003         1.356966         0.122814
 O         1.805272         0.686571         1.095742
 H        -0.161856        -1.128923         1.113202
 H        -0.877528         0.162981         0.229069
 H        -0.377876        -1.345805        -0.573285
 H         2.797702        -1.413419         0.469669
 H         2.318894        -1.684749        -1.207418
 H         5.324191         1.197762        -1.073416
 H         5.460504        -0.377631        -0.257899
 H         4.864356        -0.289065        -2.076743
 H         0.740814         1.853613        -1.173338
 H         3.225654         2.188153         0.414487
