19
Iteration:  2096charge 0 multiplicity 1
 C        -0.019182        -0.650029         0.054581
 C         1.320338         0.002652        -0.087936
 C         2.487042        -0.880528        -0.452461
 C         3.434569         0.296342        -0.807478
 C         4.905002         0.081361        -1.081588
 O         2.535663         0.976457        -1.921999
 C         1.653588         1.260615        -0.876734
 C         2.733835         1.296079         0.185162
 O         1.833086         0.579550         1.196128
 H         0.136562        -1.677088         0.463250
 H        -0.754790        -0.089407         0.696057
 H        -0.405688        -0.856773        -0.893285
 H         2.787590        -1.295366         0.449443
 H         2.485399        -1.580970        -1.334123
 H         5.366786         0.983502        -1.423744
 H         5.453456         0.034028        -0.103143
 H         5.047587        -0.834033        -1.780765
 H         0.943041         2.153208        -1.074209
 H         3.195529         2.226525         0.503971
