19
Iteration:  4469
 C        -0.017431        -0.683567         0.193338
 C         1.307313        -0.025145        -0.078817
 C         2.486941        -0.820544        -0.452098
 C         3.396258         0.269295        -0.803848
 C         4.841672         0.114645        -0.953084
 O         2.623642         0.979869        -1.979181
 C         1.658897         1.218378        -1.017554
 C         2.636440         1.319240         0.203579
 O         1.905296         0.595156         1.073620
 H         0.256936        -1.636357         0.752040
 H        -0.631675        -0.172128         0.806456
 H        -0.604409        -0.860536        -0.663220
 H         2.915234        -1.363970         0.402073
 H         2.449954        -1.540186        -1.280157
 H         5.138193         0.858140        -1.637033
 H         5.256126         0.525815         0.046417
 H         5.259829        -0.910184        -1.122546
 H         0.873054         1.841589        -1.323479
 H         3.243501         2.188629         0.492803
