19
Iteration:  2188
 C        -0.070051        -0.622602         0.121453
 C         1.299139        -0.106593        -0.013135
 C         2.448113        -0.947621        -0.513089
 C         3.349664         0.326937        -0.835213
 C         4.865538         0.155693        -1.055453
 O         2.706984         0.992031        -1.967001
 C         1.643187         1.278153        -0.909747
 C         2.737064         1.338665         0.184243
 O         1.887500         0.548757         1.198543
 H        -0.159972        -1.236940         1.028594
 H        -0.829808         0.145190         0.080938
 H        -0.252076        -1.400612        -0.724013
 H         2.887005        -1.588005         0.303997
 H         2.218848        -1.483691        -1.326881
 H         5.296531         1.218803        -0.987841
 H         5.388963        -0.397232        -0.235654
 H         4.952739        -0.291563        -2.021685
 H         0.808344         1.886886        -1.039061
 H         3.251812         2.260031         0.558695
