19
Iteration:   902
 C        -0.040655        -0.673862         0.008584
 C         1.319686        -0.075385        -0.055991
 C         2.453745        -0.999794        -0.342837
 C         3.415275         0.326626        -0.786912
 C         4.913414         0.200553        -1.093666
 O         2.589673         0.909420        -1.921573
 C         1.688965         1.263432        -0.950938
 C         2.769076         1.316339         0.195936
 O         1.794452         0.678465         1.149489
 H        -0.094560        -1.233697         1.033566
 H        -0.837436         0.152402         0.140079
 H        -0.426423        -1.348619        -0.748830
 H         2.907569        -1.444066         0.608185
 H         2.553174        -1.550160        -1.212297
 H         5.363704         1.112738        -1.135115
 H         5.387024        -0.559907        -0.314994
 H         4.995180        -0.243065        -2.063639
 H         0.880101         1.990857        -1.046159
 H         3.231659         2.260039         0.492057
