19
Iteration:  2320
 C        -0.184996        -0.625826         0.303487
 C         1.235557        -0.146584        -0.044877
 C         2.450478        -0.920881        -0.598103
 C         3.358786         0.312459        -0.899516
 C         4.901210         0.227576        -0.842008
 O         2.683201         0.956894        -2.042434
 C         1.637496         1.308590        -0.986745
 C         2.725654         1.272953         0.152527
 O         1.987876         0.538993         1.100195
 H         0.059195        -1.269018         1.126070
 H        -0.680237         0.304695         0.680923
 H        -0.760036        -1.070455        -0.579373
 H         2.918861        -1.586119         0.187284
 H         2.358912        -1.461107        -1.515491
 H         5.366189         1.308117        -0.870683
 H         5.072543        -0.340567         0.088980
 H         5.572383        -0.339477        -1.561336
 H         0.947289         2.164268        -1.212431
 H         3.260677         2.047860         0.792054
