19
Iteration:  2963charge 0 multiplicity 1
 C        -0.044734        -0.734773         0.217621
 C         1.302857        -0.031056         0.028482
 C         2.485928        -0.855317        -0.498356
 C         3.351729         0.332012        -0.805948
 C         4.863449         0.070018        -0.928651
 O         2.678279         0.894482        -1.951331
 C         1.628670         1.207466        -0.973865
 C         2.665998         1.384859         0.107570
 O         1.907859         0.731743         1.045750
 H        -0.075289        -1.210023         1.148034
 H        -0.797007         0.145927         0.195057
 H        -0.151792        -1.370723        -0.694574
 H         3.002833        -1.439612         0.304043
 H         2.177647        -1.464670        -1.475500
 H         5.634788         0.795059        -0.657495
 H         5.176259        -0.665698        -0.216235
 H         5.276621        -0.477867        -1.819573
 H         0.656714         1.709325        -1.331786
 H         3.017619         2.323921         0.362275
