19
Iteration:   281charge 0 multiplicity 1
 C        -0.137719        -0.732036         0.289284
 C         1.315342        -0.070730        -0.082532
 C         2.541324        -0.989467        -0.576458
 C         3.395631         0.342122        -0.841842
 C         4.964440         0.207104        -0.839899
 O         2.659467         0.925315        -1.968868
 C         1.580668         1.213928        -1.007217
 C         2.591817         1.313114         0.158604
 O         1.904153         0.726025         1.087726
 H         0.010710        -1.583188         0.957680
 H        -0.735961         0.026721         0.704625
 H        -0.632048        -1.036203        -0.668123
 H         3.151608        -1.593483         0.055396
 H         2.317232        -1.571976        -1.484530
 H         5.422020         1.083680        -0.354046
 H         5.345996        -0.653245        -0.387757
 H         5.286465         0.226361        -1.934454
 H         0.967337         1.986561        -1.435086
 H         3.171003         2.124363         0.531636
