19
Iteration:   186charge 0 multiplicity 1
 C        -0.062417        -0.651306        -0.012307
 C         1.337329        -0.100901        -0.079826
 C         2.583394        -0.915158        -0.396384
 C         3.394918         0.256634        -0.789180
 C         4.874013         0.185984        -1.090234
 O         2.626012         0.839551        -1.908044
 C         1.614640         1.297394        -0.912456
 C         2.645967         1.457009         0.255399
 O         1.864994         0.580521         1.150048
 H         0.041183        -1.198483         0.958765
 H        -0.739913         0.277554         0.193942
 H        -0.307631        -1.216850        -0.910346
 H         2.885613        -1.664921         0.469315
 H         2.458156        -1.554584        -1.241326
 H         4.963511         0.755391        -2.017230
 H         5.463971         0.858478        -0.313699
 H         5.291441        -0.818212        -1.166601
 H         0.805515         1.938386        -1.195939
 H         2.970501         2.376955         0.742397
