19
Iteration:  4024
 C        -0.019862        -0.713660         0.231122
 C         1.264036        -0.021682        -0.173599
 C         2.498732        -0.876042        -0.544317
 C         3.397227         0.284879        -0.813550
 C         4.923930         0.144379        -0.922242
 O         2.642992         0.894169        -1.917405
 C         1.610980         1.329329        -0.971855
 C         2.689502         1.361814         0.187553
 O         1.866282         0.626586         1.083359
 H         0.227176        -1.562215         1.022560
 H        -0.778338        -0.070509         0.677209
 H        -0.442936        -1.309138        -0.675115
 H         2.629118        -1.592037         0.340848
 H         2.415266        -1.597094        -1.471439
 H         5.344812         0.987213        -1.558169
 H         5.282056         0.011852         0.195954
 H         5.154334        -0.815261        -1.451826
 H         0.747905         2.073950        -1.188410
 H         3.240602         2.274716         0.619129
