19
Iteration:  1692charge 0 multiplicity 1
 C        -0.057581        -0.581617         0.030582
 C         1.310387        -0.060194        -0.108240
 C         2.545895        -0.966434        -0.382390
 C         3.350353         0.284551        -0.755862
 C         4.882777         0.282089        -1.069343
 O         2.651659         0.731699        -1.871844
 C         1.589158         1.250583        -0.840647
 C         2.699966         1.357506         0.136491
 O         1.886242         0.673061         1.129575
 H        -0.064923        -1.382746         0.807582
 H        -0.798523         0.180969         0.212856
 H        -0.408180        -1.203081        -0.797509
 H         2.763633        -1.598849         0.384973
 H         2.466383        -1.486882        -1.433357
 H         5.229757         1.288592        -1.487163
 H         5.485180         0.003340        -0.233166
 H         5.083350        -0.508585        -1.902679
 H         0.914272         2.064315        -1.237663
 H         3.214034         2.200835         0.531783
