19
Iteration:  3225
 C        -0.102095        -0.587789         0.053719
 C         1.302578        -0.080881        -0.050422
 C         2.591068        -1.005853        -0.312363
 C         3.390099         0.272997        -0.776663
 C         4.814270         0.230506        -1.171181
 O         2.685357         0.909731        -1.908802
 C         1.704537         1.172290        -0.909791
 C         2.731795         1.369847         0.234268
 O         1.800927         0.638826         1.116390
 H        -0.288763        -1.591027         0.521301
 H        -0.877215         0.268151         0.303992
 H        -0.255270        -0.707813        -1.033534
 H         2.922366        -1.343190         0.683881
 H         2.408262        -1.731181        -1.171581
 H         4.985814         1.075872        -1.999808
 H         5.532269         0.307851        -0.343828
 H         4.960097        -0.794929        -1.641816
 H         0.837739         1.900201        -1.083694
 H         3.152802         2.219474         0.727776
