19
Iteration:   326
 C        -0.051275        -0.676544         0.135705
 C         1.379574        -0.078048        -0.118256
 C         2.569068        -0.963146        -0.448921
 C         3.368878         0.278394        -0.779049
 C         4.846569         0.281957        -1.009988
 O         2.676392         0.856903        -1.946693
 C         1.600518         1.299947        -0.954631
 C         2.649673         1.358319         0.181846
 O         1.845260         0.660034         1.132614
 H        -0.148117        -1.338405         1.013023
 H        -0.815177         0.140870         0.409105
 H        -0.547966        -1.226424        -0.627935
 H         2.790388        -1.750069         0.370401
 H         2.535940        -1.558141        -1.341219
 H         5.302836         1.031521        -0.380298
 H         5.290695        -0.615720        -0.470442
 H         5.095179         0.109429        -2.067516
 H         0.750093         1.745203        -1.439942
 H         3.388000         2.020802         0.566641
