19
Iteration:  3247charge 0 multiplicity 1
 C        -0.036877        -0.621297        -0.040628
 C         1.300101        -0.070912        -0.037819
 C         2.590903        -0.866961        -0.420765
 C         3.444851         0.300692        -0.702746
 C         4.955472         0.106748        -1.262361
 O         2.601814         0.815586        -1.863816
 C         1.679112         1.243211        -0.935946
 C         2.571495         1.394901         0.244565
 O         1.798107         0.671135         1.264925
 H        -0.096096        -1.495902         0.660611
 H        -0.828664         0.173875         0.295101
 H        -0.439547        -0.995871        -0.993338
 H         2.871915        -1.453507         0.478694
 H         2.350342        -1.411154        -1.393633
 H         5.170341         0.913758        -2.084103
 H         5.669776         0.294162        -0.414432
 H         5.190713        -0.960776        -1.589434
 H         0.856235         1.979297        -1.106837
 H         3.136424         2.167560         0.698687
