19
Iteration:  3291
 C         0.044271        -0.698926         0.180060
 C         1.254771        -0.041747        -0.127002
 C         2.541474        -0.928056        -0.500053
 C         3.345910         0.286735        -0.842241
 C         4.780590         0.144904        -0.913533
 O         2.672868         0.997095        -2.031564
 C         1.609041         1.314517        -0.958642
 C         2.676610         1.263741         0.191981
 O         1.915328         0.637723         1.202454
 H        -0.030774        -1.420267         0.999023
 H        -0.899042        -0.092450         0.318355
 H        -0.281109        -1.188680        -0.709635
 H         2.803991        -1.477351         0.446517
 H         2.479861        -1.675205        -1.328198
 H         5.276789         1.020007        -1.390854
 H         5.335409        -0.063767         0.071407
 H         5.012493        -0.828191        -1.491971
 H         0.963318         2.152750        -1.239124
 H         3.239456         2.164196         0.310533
