19
Iteration:  3604charge 0 multiplicity 1
 C        -0.042732        -0.703675        -0.018430
 C         1.300048        -0.013724        -0.012966
 C         2.530275        -0.955182        -0.413521
 C         3.369841         0.347897        -0.796886
 C         4.896123         0.130658        -1.140284
 O         2.654785         0.968271        -1.946267
 C         1.651722         1.204666        -0.908016
 C         2.700831         1.296757         0.219759
 O         1.836315         0.686558         1.244959
 H        -0.130704        -1.499150         0.645884
 H        -0.847733         0.038323         0.211730
 H        -0.209533        -1.076695        -1.031310
 H         2.856058        -1.512294         0.470384
 H         2.200984        -1.502482        -1.277458
 H         5.593672         1.071858        -1.210973
 H         5.223415        -0.506987        -0.326974
 H         5.038704        -0.457656        -2.094832
 H         0.836588         1.996413        -1.045421
 H         3.051758         2.124476         0.818889
