19
Iteration:   240
 C        -0.084738        -0.699996         0.077935
 C         1.261825        -0.056403        -0.091342
 C         2.561539        -0.887547        -0.482267
 C         3.420395         0.320679        -0.770619
 C         4.906534         0.201954        -1.041177
 O         2.609413         0.852850        -1.883802
 C         1.661955         1.246229        -0.988386
 C         2.650246         1.366845         0.233334
 O         1.873019         0.661499         1.157161
 H         0.188087        -1.554030         0.753219
 H        -0.983883        -0.069352         0.477250
 H        -0.322624        -1.170625        -0.896294
 H         2.849405        -1.303211         0.602567
 H         2.567430        -1.666540        -1.226702
 H         5.403528         1.146884        -1.289150
 H         5.427799        -0.427062        -0.205050
 H         5.027245        -0.383060        -1.986670
 H         0.857671         1.851932        -1.350386
 H         3.073995         2.283856         0.590034
