19
Iteration:   918charge 0 multiplicity 1
 C        -0.114775        -0.642567         0.162484
 C         1.288031        -0.086727        -0.024008
 C         2.546029        -0.937039        -0.448422
 C         3.381876         0.257010        -0.811059
 C         4.816446         0.232809        -0.989647
 O         2.695701         0.899483        -2.028967
 C         1.700396         1.261281        -0.947727
 C         2.669853         1.350322         0.181225
 O         1.872966         0.622766         1.161440
 H        -0.239624        -1.465089         0.811388
 H        -0.837431         0.164763         0.274203
 H        -0.339730        -1.128049        -0.828055
 H         2.856697        -1.447572         0.443430
 H         2.209283        -1.749413        -1.201243
 H         5.310232         1.298421        -1.135118
 H         5.347249        -0.214435        -0.223464
 H         5.149210        -0.288402        -1.934608
 H         0.978146         1.985753        -1.347779
 H         3.357031         2.102744         0.637533
