19
Iteration:  2217charge 0 multiplicity 1
 C        -0.065010        -0.686073        -0.049049
 C         1.285583        -0.046013        -0.056941
 C         2.591304        -0.915489        -0.437487
 C         3.386485         0.314152        -0.783187
 C         4.881879         0.045357        -1.218300
 O         2.599425         0.856103        -1.884098
 C         1.678912         1.383615        -0.830276
 C         2.671496         1.401414         0.303890
 O         1.843471         0.664948         1.233553
 H        -0.025227        -1.458115         0.758211
 H        -1.011224        -0.139818         0.047320
 H         0.008573        -1.187802        -0.972207
 H         3.016854        -1.644690         0.332844
 H         2.361412        -1.444615        -1.484033
 H         5.307276         1.001212        -1.469506
 H         5.600998        -0.349684        -0.428156
 H         4.792065        -0.554238        -2.169978
 H         0.840634         2.109633        -1.001563
 H         3.194560         2.208544         0.753194
