19
Iteration:  4619
 C        -0.003371        -0.697541         0.151385
 C         1.258230        -0.000543        -0.086070
 C         2.587817        -0.853330        -0.518946
 C         3.438663         0.368399        -0.782091
 C         4.888187         0.091073        -1.014423
 O         2.584146         0.831809        -1.904373
 C         1.626835         1.294736        -0.955985
 C         2.675585         1.374401         0.234893
 O         1.811148         0.643084         1.079001
 H        -0.003421        -1.229731         1.154821
 H        -0.895465        -0.118331         0.235096
 H        -0.174930        -1.432487        -0.635142
 H         2.876503        -1.570534         0.257127
 H         2.546358        -1.388946        -1.488276
 H         5.445869         0.994132        -0.884194
 H         5.160301        -0.511725        -0.152441
 H         5.116970        -0.410062        -1.971157
 H         0.892523         1.954337        -1.283117
 H         3.384717         2.030395         0.715519
