19
Iteration:   370charge 0 multiplicity 1
 C        -0.015235        -0.682323        -0.076883
 C         1.300629        -0.139168        -0.069489
 C         2.575760        -0.910634        -0.368732
 C         3.382298         0.354289        -0.786157
 C         4.853826         0.149451        -1.168642
 O         2.611170         0.864492        -1.848818
 C         1.685692         1.221324        -0.946845
 C         2.698842         1.480692         0.253123
 O         1.789622         0.641117         1.214455
 H        -0.135604        -1.284273         0.843576
 H        -0.765962         0.167460         0.161883
 H        -0.218260        -1.249888        -0.929424
 H         3.010046        -1.515648         0.544225
 H         2.542906        -1.617327        -1.148823
 H         5.218559         1.154012        -1.321602
 H         5.573360        -0.181204        -0.346635
 H         4.961531        -0.563484        -2.016601
 H         0.826472         1.785843        -1.252442
 H         3.131548         2.368066         0.674639
