19
Iteration:  1206charge 0 multiplicity 1
 C        -0.110788        -0.647113         0.069546
 C         1.330426        -0.068532        -0.025940
 C         2.609110        -0.955342        -0.365771
 C         3.389875         0.281130        -0.794834
 C         4.828984         0.242568        -1.137457
 O         2.635227         0.795451        -1.945804
 C         1.752374         1.305663        -0.942691
 C         2.676247         1.317508         0.211270
 O         1.810645         0.705477         1.143346
 H        -0.268571        -1.352440         0.950570
 H        -0.921661         0.131135         0.072525
 H        -0.291771        -1.071849        -0.897580
 H         2.904572        -1.378729         0.708186
 H         2.576206        -1.792244        -1.080887
 H         5.144707         1.182963        -1.483316
 H         5.388553        -0.085454        -0.242868
 H         4.968644        -0.568431        -1.865343
 H         0.861541         1.944595        -1.184065
 H         3.133358         2.101496         0.781759
