19
Iteration:  4112charge 0 multiplicity 1
 C        -0.112934        -0.584998         0.093224
 C         1.372281        -0.052616        -0.063161
 C         2.595647        -0.988537        -0.389704
 C         3.418290         0.180441        -0.848326
 C         4.867593         0.314977        -1.090895
 O         2.591877         0.853992        -1.885239
 C         1.691113         1.200814        -0.902266
 C         2.702738         1.297860         0.229457
 O         1.756896         0.687977         1.090226
 H        -0.025229        -1.410678         0.856726
 H        -0.837463         0.120434         0.458266
 H        -0.398153        -0.858692        -0.917092
 H         2.954176        -1.427797         0.593861
 H         2.282473        -1.696356        -1.210729
 H         5.314623         1.299460        -1.177869
 H         5.544832        -0.121845        -0.213061
 H         5.292769        -0.210949        -1.982192
 H         0.990967         1.852597        -1.426481
 H         3.220793         2.199650         0.490088
