19
Iteration:  1892charge 0 multiplicity 1
 C        -0.069043        -0.664361        -0.069878
 C         1.299181        -0.033228        -0.121166
 C         2.556985        -0.879874        -0.325437
 C         3.483635         0.247485        -0.700867
 C         4.911575         0.132737        -1.262452
 O         2.535100         0.878711        -1.879640
 C         1.682333         1.258595        -0.847819
 C         2.658378         1.341641         0.254027
 O         1.863586         0.700048         1.199370
 H        -0.149343        -1.521632         0.579809
 H        -1.000130        -0.176656         0.193286
 H        -0.157810        -0.929961        -1.073469
 H         2.720552        -1.438419         0.713798
 H         2.526684        -1.659660        -1.038456
 H         5.277771         1.043739        -1.649614
 H         5.551566        -0.220037        -0.391518
 H         4.899023        -0.640619        -2.005959
 H         0.883065         2.019352        -1.077802
 H         3.135318         2.268025         0.614595
