19
Iteration:  3883charge 0 multiplicity 1
 C        -0.094072        -0.689269         0.124715
 C         1.304314        -0.041417        -0.096564
 C         2.556612        -0.914854        -0.447215
 C         3.385278         0.337701        -0.743631
 C         4.782164         0.131187        -1.061328
 O         2.708704         0.961237        -1.903810
 C         1.684915         1.268699        -0.936318
 C         2.695011         1.352910         0.177914
 O         1.846660         0.604495         1.091202
 H         0.002123        -1.460552         0.875639
 H        -0.907555        -0.113221         0.499676
 H        -0.507699        -1.246607        -0.737856
 H         2.955858        -1.410515         0.469727
 H         2.506798        -1.616558        -1.346940
 H         5.184516         0.863892        -1.671528
 H         5.405996        -0.083273        -0.157930
 H         4.943081        -0.743881        -1.640495
 H         1.029265         2.119546        -1.200841
 H         3.075650         2.142066         0.789542
