19
Iteration:  4179
 C         0.021274        -0.754772         0.260876
 C         1.276987        -0.085331        -0.132415
 C         2.558029        -0.906179        -0.518209
 C         3.433882         0.330752        -0.856696
 C         4.916536         0.160592        -0.872172
 O         2.613915         0.961037        -1.985349
 C         1.651590         1.265562        -1.042653
 C         2.638214         1.271050         0.107664
 O         1.779694         0.728599         1.187186
 H         0.110978        -1.397324         1.068926
 H        -0.740998        -0.020277         0.566996
 H        -0.460906        -1.096447        -0.644078
 H         2.908771        -1.415721         0.447332
 H         2.373108        -1.612121        -1.341611
 H         5.638701         0.922556        -0.790962
 H         5.153285        -0.601330        -0.041696
 H         4.986203        -0.330568        -1.886699
 H         0.860703         1.907354        -1.224410
 H         3.253623         2.073687         0.344054
