19
Iteration:  2744charge 0 multiplicity 1
 C        -0.150162        -0.570992        -0.042686
 C         1.377986        -0.065470         0.028547
 C         2.559464        -0.909528        -0.378047
 C         3.481901         0.303797        -0.793086
 C         4.860267         0.231099        -1.092202
 O         2.548261         0.703362        -1.905347
 C         1.632925         1.235407        -0.906944
 C         2.690240         1.361920         0.169627
 O         1.903351         0.700532         1.182168
 H        -0.504725        -0.897081         0.870939
 H        -0.600037         0.345761        -0.392343
 H        -0.188014        -1.261772        -0.922798
 H         2.841902        -1.404457         0.615963
 H         2.416823        -1.813860        -0.977325
 H         5.322209         1.248402        -1.296027
 H         5.444951        -0.292779        -0.377377
 H         5.059792        -0.484521        -2.046433
 H         0.674775         1.756794        -1.280458
 H         3.218084         2.139878         0.650949
