19
Iteration:  1500
 C        -0.030988        -0.647959         0.166648
 C         1.281087        -0.050109        -0.157192
 C         2.527892        -0.938825        -0.461685
 C         3.392524         0.248922        -0.829217
 C         4.824415         0.232787        -0.967464
 O         2.634967         0.824359        -1.923087
 C         1.698401         1.263050        -1.007251
 C         2.689723         1.333731         0.169408
 O         1.850494         0.702971         1.150112
 H         0.161548        -1.489717         0.880146
 H        -0.642270         0.023080         0.827883
 H        -0.510657        -1.167033        -0.628078
 H         2.913464        -1.479870         0.521759
 H         2.443430        -1.690363        -1.182665
 H         5.137418         1.191051        -1.288234
 H         5.194139        -0.073900         0.051177
 H         5.198683        -0.524203        -1.686204
 H         0.942265         2.005917        -1.390347
 H         3.139397         2.305538         0.387577
