19
Iteration:  4913charge 0 multiplicity 1
 C        -0.098715        -0.671510         0.037706
 C         1.318080        -0.077630        -0.025931
 C         2.447192        -0.926641        -0.485240
 C         3.408269         0.305517        -0.819786
 C         4.926875         0.194743        -1.011684
 O         2.650044         0.908281        -1.898778
 C         1.683152         1.266608        -0.870077
 C         2.715897         1.394163         0.160977
 O         1.894194         0.589655         1.153084
 H        -0.163610        -1.769250         0.435544
 H        -0.832420         0.004646         0.491874
 H        -0.587642        -0.800348        -0.953602
 H         2.634754        -1.625154         0.356564
 H         2.262717        -1.597629        -1.322456
 H         5.054193         0.916814        -1.788799
 H         5.422790         0.517236        -0.066317
 H         5.232054        -0.843095        -1.346192
 H         0.802754         1.860039        -1.123370
 H         3.007980         2.383645         0.510214
