19
Iteration:  4115charge 0 multiplicity 1
 C        -0.109077        -0.601910         0.100675
 C         1.339424        -0.067357        -0.097099
 C         2.587225        -0.990617        -0.380432
 C         3.408265         0.183904        -0.847736
 C         4.887707         0.308440        -1.078275
 O         2.611585         0.866587        -1.920917
 C         1.700191         1.195731        -0.875819
 C         2.687311         1.316668         0.219920
 O         1.782981         0.699629         1.114883
 H        -0.030248        -1.407013         0.756583
 H        -0.774116         0.233247         0.519814
 H        -0.449458        -0.929586        -0.895268
 H         2.895862        -1.551433         0.573210
 H         2.272421        -1.708888        -1.150932
 H         5.189225         1.346795        -1.100157
 H         5.448130        -0.183932        -0.253991
 H         5.286541        -0.159022        -1.993201
 H         0.973583         1.776753        -1.378638
 H         3.202301         2.219074         0.415265
