19
Iteration:   622charge 0 multiplicity 1
 C        -0.008504        -0.593138         0.192998
 C         1.324547        -0.094959        -0.139889
 C         2.409371        -1.019768        -0.594748
 C         3.389784         0.326777        -0.829226
 C         4.840134         0.316339        -0.845357
 O         2.647080         0.929361        -1.958409
 C         1.697289         1.223082        -0.986866
 C         2.758776         1.274980         0.154319
 O         1.844608         0.571923         1.134921
 H         0.121666        -1.479196         0.830687
 H        -0.564456         0.115493         0.958554
 H        -0.615130        -0.769273        -0.670443
 H         2.722439        -1.661845         0.343446
 H         2.134472        -1.744667        -1.289942
 H         5.216307         1.248704        -1.317187
 H         5.213952         0.211480         0.211445
 H         5.189666        -0.484540        -1.496883
 H         0.893841         1.933050        -1.145852
 H         3.228083         2.243450         0.418409
