19
Iteration:    90
 C        -0.005956        -0.727449         0.065481
 C         1.325045        -0.078083        -0.035005
 C         2.498318        -0.994192        -0.512346
 C         3.380041         0.330313        -0.857872
 C         4.919143         0.172328        -0.985020
 O         2.634796         0.999667        -1.900715
 C         1.612820         1.298474        -0.941279
 C         2.671762         1.344945         0.220914
 O         1.830969         0.609993         1.145468
 H        -0.072071        -1.510037         0.805151
 H        -0.634589         0.132748         0.508512
 H        -0.435978        -0.957446        -0.820544
 H         2.818508        -1.627693         0.355801
 H         2.464965        -1.652404        -1.294713
 H         5.227688        -0.729943        -1.375193
 H         5.443046         0.996420        -1.614929
 H         5.268931         0.261331        -0.026891
 H         0.753820         1.753984        -1.409639
 H         3.239855         2.261813         0.588052
