19
Iteration:  2909charge 0 multiplicity 1
 C        -0.141735        -0.553473         0.074172
 C         1.255506        -0.047493        -0.013508
 C         2.537375        -0.942747        -0.250718
 C         3.421222         0.257606        -0.722190
 C         4.860624         0.312755        -1.188896
 O         2.683234         0.785426        -1.964248
 C         1.754129         1.194645        -0.993041
 C         2.700845         1.302178         0.189769
 O         1.779916         0.646819         1.146191
 H        -0.275814        -1.107022         0.928604
 H        -0.829853         0.349031         0.054845
 H        -0.308319        -1.175978        -0.814923
 H         2.891691        -1.253707         0.754979
 H         2.575139        -1.646472        -1.186495
 H         5.139888         1.305045        -1.516163
 H         5.503906        -0.211793        -0.485294
 H         5.226443        -0.476181        -2.015425
 H         0.939358         1.938874        -1.298798
 H         3.410605         1.912395         0.614501
