19
Iteration:  3435
 C        -0.092766        -0.764431         0.044741
 C         1.294639        -0.073054        -0.144568
 C         2.479356        -0.829486        -0.380250
 C         3.479912         0.355388        -0.839498
 C         4.845236         0.080227        -1.147702
 O         2.626861         0.911876        -1.896860
 C         1.710811         1.325794        -0.889614
 C         2.629853         1.390063         0.345185
 O         1.858457         0.616234         1.132106
 H         0.011627        -1.629393         0.780018
 H        -0.738199         0.073238         0.278305
 H        -0.519757        -1.134167        -0.862252
 H         2.898276        -1.284290         0.570236
 H         2.456188        -1.538879        -1.194445
 H         5.363145         0.886333        -1.686413
 H         5.472775        -0.234811        -0.144176
 H         5.166020        -0.731080        -1.922685
 H         0.980480         2.045748        -1.116895
 H         3.318304         2.124159         0.766590
