19
Iteration:  1194
 C        -0.077375        -0.646931         0.059827
 C         1.302338        -0.125344         0.017435
 C         2.476278        -0.939803        -0.310399
 C         3.371569         0.283465        -0.778418
 C         4.897985         0.205084        -1.080244
 O         2.659480         0.873155        -1.939249
 C         1.676789         1.254838        -0.941863
 C         2.712620         1.447625         0.195346
 O         1.842209         0.627189         1.068635
 H        -0.242711        -1.559669         0.759428
 H        -0.710855         0.168550         0.409163
 H        -0.338645        -1.118543        -0.884247
 H         3.083557        -1.442926         0.614532
 H         2.259407        -1.634962        -1.102907
 H         5.237171         1.047856        -1.687715
 H         5.569234         0.091319        -0.262409
 H         4.993887        -0.642726        -1.833364
 H         0.779770         1.892592        -1.339442
 H         3.361306         2.282464         0.409453
