19
Iteration:  2084charge 0 multiplicity 1
 C        -0.058710        -0.726761        -0.023940
 C         1.240473         0.010673        -0.034438
 C         2.532512        -0.813107        -0.434217
 C         3.418489         0.299174        -0.834384
 C         5.008408         0.044267        -1.154338
 O         2.560874         0.902832        -1.896921
 C         1.646702         1.306433        -0.823434
 C         2.687713         1.432611         0.285243
 O         1.850322         0.596964         1.189131
 H         0.051625        -1.669761         0.523023
 H        -0.833489        -0.129428         0.503986
 H        -0.381009        -0.797781        -1.040421
 H         2.776386        -1.376574         0.410263
 H         2.271160        -1.646848        -1.233933
 H         5.349689         0.893440        -1.749861
 H         5.562775        -0.346137        -0.297219
 H         5.187434        -0.813740        -1.941657
 H         0.718478         1.880949        -1.243424
 H         3.350584         2.212522         0.726270
