19
Iteration:  4661
 C        -0.147280        -0.750469         0.210082
 C         1.297923        -0.133056        -0.029547
 C         2.524949        -0.877879        -0.507813
 C         3.332296         0.322157        -0.789837
 C         4.893792         0.114352        -0.975094
 O         2.730625         1.010823        -1.905657
 C         1.633158         1.276520        -1.001112
 C         2.743781         1.349460         0.137971
 O         1.850322         0.654916         1.081528
 H         0.004764        -1.679035         0.735960
 H        -0.820075        -0.177850         0.883380
 H        -0.618560        -0.864196        -0.795544
 H         3.052285        -1.421384         0.259905
 H         2.360734        -1.510357        -1.406002
 H         5.252436         0.896120        -1.716996
 H         5.443945         0.203019        -0.029000
 H         4.991430        -0.939024        -1.350330
 H         0.837292         1.858003        -1.403741
 H         3.201971         2.212534         0.561572
