19
Iteration:  1531charge 0 multiplicity 1
 C        -0.164014        -0.633894         0.031454
 C         1.300020        -0.124226        -0.018221
 C         2.488780        -0.942390        -0.398167
 C         3.473130         0.268430        -0.784342
 C         4.941880         0.276614        -1.096402
 O         2.613126         0.797661        -1.937461
 C         1.677413         1.205775        -0.969214
 C         2.658100         1.332424         0.182850
 O         1.898457         0.728020         1.246176
 H        -0.314348        -1.498324         0.721359
 H        -0.750626         0.269998         0.196741
 H        -0.343043        -0.934703        -0.985737
 H         2.902587        -1.439567         0.602837
 H         2.387615        -1.714645        -1.172742
 H         5.144647         1.115747        -1.756844
 H         5.571478         0.390083        -0.270336
 H         5.199550        -0.660210        -1.661630
 H         0.875726         1.967834        -1.269968
 H         2.981488         2.331898         0.379029
