19
Iteration:  4946charge 0 multiplicity 1
 C         0.021567        -0.722662         0.121731
 C         1.323624        -0.050174        -0.113423
 C         2.508543        -0.858590        -0.538912
 C         3.421423         0.334711        -0.829382
 C         4.836054         0.039258        -0.966183
 O         2.621602         0.988246        -1.939087
 C         1.670866         1.318267        -0.912427
 C         2.723315         1.393253         0.235707
 O         1.790739         0.574737         1.144443
 H         0.041407        -1.441964         1.039732
 H        -0.792815        -0.059955         0.464866
 H        -0.300367        -1.306747        -0.767564
 H         2.711929        -1.451834         0.382137
 H         2.270626        -1.437969        -1.422580
 H         5.243400         0.757564        -1.692980
 H         5.478821         0.203500        -0.073893
 H         5.069465        -0.966279        -1.394246
 H         0.811961         1.800605        -1.423140
 H         3.145858         2.289103         0.725315
