19
Iteration:  2554charge 0 multiplicity 1
 C        -0.044196        -0.653040         0.029409
 C         1.310367        -0.048617        -0.041525
 C         2.549845        -0.876569        -0.362868
 C         3.404940         0.301990        -0.750184
 C         4.917184         0.118350        -1.193553
 O         2.576014         0.865177        -1.905250
 C         1.703302         1.298093        -0.881775
 C         2.654801         1.319281         0.225975
 O         1.834905         0.671048         1.151237
 H        -0.421607        -1.037771         0.942397
 H        -0.711764         0.103759        -0.361640
 H        -0.165842        -1.350955        -0.725527
 H         2.884514        -1.414260         0.540771
 H         2.497356        -1.688354        -1.083400
 H         5.394765         0.973587        -1.671659
 H         5.440575        -0.450318        -0.349462
 H         4.871437        -0.689404        -1.925947
 H         1.005567         2.039656        -1.209599
 H         3.016880         2.260172         0.698759
