19
Iteration:  2352
 C        -0.006454        -0.632942         0.158479
 C         1.336052        -0.082029        -0.134242
 C         2.438301        -0.954842        -0.598651
 C         3.392357         0.281245        -0.777343
 C         4.860496         0.094647        -0.987687
 O         2.641010         0.968530        -1.912934
 C         1.629378         1.259744        -0.907057
 C         2.625985         1.351764         0.202822
 O         1.910589         0.652514         1.120374
 H         0.165580        -1.041095         1.118231
 H        -0.699805         0.184568         0.222302
 H        -0.381189        -1.564466        -0.333519
 H         2.738820        -1.750524         0.190165
 H         2.370248        -1.310044        -1.607084
 H         5.400698         1.116081        -0.960077
 H         5.418990        -0.267217        -0.108057
 H         5.126156        -0.564320        -1.841627
 H         0.916023         2.072577        -1.135244
 H         3.146376         2.215105         0.745552
