19
Iteration:   352
 C        -0.074369        -0.641217         0.038899
 C         1.330481        -0.037498         0.000505
 C         2.584650        -0.852625        -0.385691
 C         3.471976         0.270085        -0.799376
 C         4.968386         0.229453        -1.145222
 O         2.643319         0.878388        -1.945031
 C         1.605793         1.180688        -0.905926
 C         2.545210         1.331133         0.231361
 O         1.829634         0.647217         1.160864
 H        -0.377442        -1.416025         0.777764
 H        -1.043501        -0.005254        -0.018581
 H        -0.129976        -1.243720        -0.915266
 H         2.881920        -1.525394         0.504267
 H         2.357192        -1.675520        -1.100552
 H         5.566141         1.146450        -0.985307
 H         5.539342        -0.578897        -0.471480
 H         4.882937        -0.337629        -2.060646
 H         0.946015         2.032872        -1.201126
 H         2.968605         2.273160         0.696138
