19
Iteration:  3737charge 0 multiplicity 1
 C        -0.105217        -0.769675        -0.022296
 C         1.247553        -0.085476         0.002811
 C         2.623037        -0.878330        -0.373658
 C         3.434137         0.280615        -0.748393
 C         4.802082         0.073574        -1.109559
 O         2.602261         1.010788        -1.967328
 C         1.676300         1.302858        -0.902495
 C         2.732603         1.354561         0.185425
 O         1.829889         0.676728         1.201260
 H        -0.202706        -1.567990         0.731829
 H        -0.948074        -0.061856         0.105314
 H        -0.284829        -1.196646        -0.975975
 H         2.970483        -1.435525         0.564022
 H         2.590728        -1.671709        -1.157927
 H         5.586133         0.971582        -1.166891
 H         5.475374        -0.567044        -0.551310
 H         4.993432        -0.337343        -2.164179
 H         1.005867         2.179336        -1.080793
 H         3.310249         2.192951         0.666208
