19
Iteration:  3540
 C        -0.093861        -0.619226         0.105804
 C         1.285920        -0.069729         0.039279
 C         2.547756        -0.917763        -0.538416
 C         3.451386         0.226638        -0.818195
 C         4.867009         0.182146        -1.060860
 O         2.711103         0.934409        -1.940433
 C         1.622541         1.246731        -0.908844
 C         2.634589         1.338603         0.252104
 O         1.851144         0.608649         1.149569
 H        -0.275579        -1.412266         0.801983
 H        -0.829776         0.147264         0.441073
 H        -0.246813        -1.009937        -0.876762
 H         3.038258        -1.643077         0.164013
 H         2.322100        -1.411205        -1.470987
 H         5.280699         1.159879        -0.948965
 H         5.359648        -0.412546        -0.407350
 H         4.992903        -0.283784        -2.025299
 H         0.930835         2.034267        -1.299288
 H         2.993174         2.328063         0.520304
