19
Iteration:  4501charge 0 multiplicity 1
 C        -0.061441        -0.767018         0.196519
 C         1.284611        -0.062352        -0.037798
 C         2.520721        -0.918695        -0.610114
 C         3.408797         0.335961        -0.783407
 C         4.854324         0.125768        -0.949113
 O         2.589742         0.901427        -1.896292
 C         1.668637         1.252114        -0.932424
 C         2.689497         1.366481         0.158548
 O         1.881615         0.771403         1.085211
 H         0.092520        -1.827501         0.592016
 H        -0.741159        -0.328303         0.827124
 H        -0.521339        -0.911184        -0.754027
 H         2.941344        -1.622992         0.126931
 H         2.405943        -1.401271        -1.617500
 H         5.443940         0.845761        -1.400121
 H         5.345632         0.063834         0.025383
 H         5.194427        -0.841662        -1.353275
 H         0.920571         1.893546        -1.290162
 H         3.332835         2.223593         0.404782
