19
Iteration:   994
 C        -0.030484        -0.692731         0.156365
 C         1.239879        -0.056265        -0.093546
 C         2.437249        -0.948700        -0.457687
 C         3.404577         0.278901        -0.749902
 C         4.898510         0.167438        -0.909210
 O         2.648937         0.958266        -2.013601
 C         1.653141         1.236907        -0.947801
 C         2.667612         1.315752         0.125194
 O         1.941696         0.681226         1.119215
 H         0.127495        -1.604645         0.702453
 H        -0.653925         0.052570         0.741024
 H        -0.643139        -0.938139        -0.779782
 H         2.807977        -1.488684         0.394015
 H         2.299694        -1.638316        -1.420130
 H         5.332476         1.086152        -1.539891
 H         5.439697         0.072313        -0.058815
 H         5.147532        -0.726925        -1.551057
 H         0.791098         1.893334        -1.161624
 H         3.000467         2.284209         0.589685
