19
Iteration:  4797
 C        -0.019442        -0.780141         0.153812
 C         1.289608        -0.013437        -0.101789
 C         2.474002        -0.900087        -0.395826
 C         3.409186         0.339659        -0.829241
 C         4.836118         0.067184        -0.987256
 O         2.715025         0.995192        -1.941859
 C         1.683694         1.290314        -0.948859
 C         2.642383         1.408426         0.104487
 O         1.845992         0.573046         1.130310
 H         0.082557        -1.124061         1.224004
 H        -0.993693        -0.199846         0.083493
 H        -0.337617        -1.676149        -0.353579
 H         2.615198        -1.687943         0.408203
 H         2.145784        -1.366604        -1.346929
 H         5.450350         0.951840        -0.694105
 H         5.344754        -0.802112        -0.564830
 H         5.188038        -0.034030        -1.994617
 H         1.034167         2.264692        -1.123592
 H         3.052953         2.479014         0.489181
