19
Iteration:    32
 C        -0.089794        -0.635048        -0.018420
 C         1.272058        -0.041508        -0.024126
 C         2.577709        -0.934130        -0.434671
 C         3.446503         0.243975        -0.771408
 C         4.898717         0.239224        -1.168112
 O         2.633155         0.957267        -1.889366
 C         1.712777         1.211991        -0.870085
 C         2.677099         1.271001         0.291767
 O         1.760055         0.599315         1.153604
 H        -0.244352        -1.444966         0.729713
 H        -0.806503         0.137898         0.128197
 H        -0.099433        -1.122762        -1.072927
 H         2.899018        -1.379020         0.513763
 H         2.465527        -1.597444        -1.362118
 H         5.515512        -0.672251        -0.904829
 H         4.914259         0.475889        -2.182383
 H         5.413947         1.143076        -0.689953
 H         0.943378         1.974687        -1.059197
 H         3.105642         2.146959         0.709359
