19
Iteration:  4763charge 0 multiplicity 1
 C        -0.002666        -0.646147         0.090932
 C         1.343012        -0.041341        -0.095187
 C         2.584624        -0.981611        -0.503467
 C         3.378757         0.320407        -0.802000
 C         4.887196         0.137908        -1.028965
 O         2.621097         0.882388        -1.934495
 C         1.696151         1.294780        -0.913790
 C         2.653401         1.336881         0.195301
 O         1.750499         0.662668         1.197273
 H         0.004066        -1.131895         1.126231
 H        -0.685814         0.174780         0.192490
 H        -0.377186        -1.405188        -0.568246
 H         2.942513        -1.780168         0.197867
 H         2.323648        -1.410560        -1.475339
 H         5.383901         1.096263        -1.103242
 H         5.347967        -0.485700        -0.236574
 H         4.924950        -0.300572        -2.025724
 H         0.915743         2.004941        -1.166038
 H         3.129225         2.304134         0.631638
