19
Iteration:  1540charge 0 multiplicity 1
 C        -0.150658        -0.572382        -0.047435
 C         1.307172        -0.082599        -0.061330
 C         2.614159        -0.966368        -0.377240
 C         3.387766         0.291864        -0.813286
 C         4.916761         0.229671        -1.134234
 O         2.596323         0.765422        -1.854802
 C         1.687622         1.142987        -0.912263
 C         2.629272         1.398315         0.174003
 O         1.898109         0.728581         1.270934
 H        -0.186797        -1.289525         0.824154
 H        -0.908455         0.131895         0.215235
 H        -0.550673        -1.042223        -0.986358
 H         2.986273        -1.615985         0.440953
 H         2.484375        -1.512180        -1.387833
 H         5.169267         1.144673        -1.772604
 H         5.413230         0.405042        -0.253347
 H         5.340243        -0.705567        -1.629493
 H         0.873644         1.787936        -1.359985
 H         3.106194         2.326748         0.413794
