19
Iteration:  1212
 C        -0.099627        -0.623703         0.057638
 C         1.294315        -0.041077        -0.070746
 C         2.633147        -0.948290        -0.363869
 C         3.446498         0.263569        -0.795818
 C         4.796173         0.229041        -1.142420
 O         2.609745         0.789005        -1.927751
 C         1.705115         1.250104        -0.971098
 C         2.682840         1.292216         0.232878
 O         1.797602         0.718340         1.199514
 H        -0.167429        -1.243524         0.935976
 H        -0.828739         0.154434         0.084424
 H        -0.260287        -1.249329        -0.889114
 H         2.919879        -1.335062         0.561330
 H         2.630718        -1.707996        -1.138637
 H         5.200774         1.321485        -1.378272
 H         5.377523        -0.101649        -0.286648
 H         5.137010        -0.497435        -1.955528
 H         1.070146         2.142809        -1.226974
 H         3.239217         2.169184         0.679287
