19
Iteration:  2147charge 0 multiplicity 1
 C        -0.106936        -0.517263         0.325912
 C         1.264376        -0.066844        -0.160707
 C         2.403074        -0.933423        -0.611490
 C         3.445672         0.326610        -0.843637
 C         4.986194         0.294635        -0.841697
 O         2.658966         0.921079        -2.021933
 C         1.610779         1.192276        -0.844718
 C         2.666537         1.248391         0.133427
 O         1.909404         0.474598         1.061723
 H         0.124498        -1.197353         1.125465
 H        -0.659404         0.260105         0.837339
 H        -0.681005        -1.089207        -0.501265
 H         2.551503        -1.821085         0.053510
 H         2.293437        -1.205757        -1.779875
 H         5.529183         1.285192        -0.885713
 H         5.457222        -0.095131         0.008584
 H         5.193063        -0.300215        -1.720865
 H         0.927809         2.011802        -1.102818
 H         3.275849         2.117113         0.525056
