19
Iteration:  2354
 C         0.005375        -0.651839         0.134964
 C         1.360516        -0.079469        -0.142206
 C         2.449526        -0.964034        -0.573641
 C         3.400782         0.280394        -0.779311
 C         4.862554         0.084355        -1.000079
 O         2.646144         0.966924        -1.907821
 C         1.617457         1.270573        -0.894202
 C         2.618010         1.365232         0.210771
 O         1.901344         0.662874         1.125722
 H         0.069238        -1.015245         1.182584
 H        -0.757217         0.212262         0.254745
 H        -0.417501        -1.575835        -0.345073
 H         2.644839        -1.695524         0.142269
 H         2.351179        -1.358471        -1.638003
 H         5.386366         1.108844        -1.009168
 H         5.391989        -0.234271        -0.118052
 H         5.088616        -0.596852        -1.934343
 H         0.853681         2.121110        -1.173502
 H         3.201881         2.133133         0.763443
