19
Iteration:  3038
 C        -0.142289        -0.559880         0.123778
 C         1.316262        -0.078604        -0.020593
 C         2.510320        -0.924082        -0.417172
 C         3.460294         0.284078        -0.731039
 C         4.883528         0.214823        -1.004377
 O         2.607397         0.850239        -1.984256
 C         1.670356         1.104853        -1.001743
 C         2.647049         1.339426         0.182616
 O         1.904316         0.673945         1.136694
 H        -0.144392        -1.522985         0.569819
 H        -0.743470         0.251397         0.700339
 H        -0.367738        -0.533040        -0.981876
 H         2.753741        -1.585015         0.407314
 H         2.243309        -1.507819        -1.350421
 H         5.193630         1.045657        -1.664596
 H         5.580959         0.443698        -0.272658
 H         5.283662        -0.625108        -1.512692
 H         0.877103         1.839300        -1.412211
 H         3.331163         2.071061         0.593613
