19
Iteration:  3066charge 0 multiplicity 1
 C        -0.120024        -0.507811        -0.074602
 C         1.344093        -0.056651        -0.097932
 C         2.670653        -0.952858        -0.336072
 C         3.384112         0.257928        -0.815642
 C         4.833238         0.203686        -1.118177
 O         2.524932         0.751288        -1.918927
 C         1.665196         1.219915        -0.865826
 C         2.662286         1.402473         0.228501
 O         1.873459         0.663572         1.197312
 H        -0.073124        -1.412542         0.643553
 H        -0.704334         0.282861         0.253023
 H        -0.425620        -0.862468        -1.049452
 H         2.931335        -1.345322         0.690080
 H         2.575129        -1.828809        -0.971670
 H         5.408264         0.989507        -1.724800
 H         5.400292         0.329410        -0.073469
 H         5.191117        -0.728195        -1.696799
 H         0.900880         1.865771        -1.148515
 H         3.482327         2.105035         0.672362
