19
Iteration:  1329
 C         0.006751        -0.681108         0.160991
 C         1.297994        -0.024771        -0.007493
 C         2.453961        -0.928053        -0.420032
 C         3.401121         0.238189        -0.806143
 C         4.903317         0.161392        -0.967012
 O         2.694429         0.940309        -1.908050
 C         1.600122         1.217492        -0.999966
 C         2.619510         1.373966         0.061867
 O         1.879692         0.685920         1.100026
 H         0.309822        -1.567095         0.723735
 H        -0.722298        -0.132318         0.877024
 H        -0.529750        -0.956817        -0.807957
 H         2.683330        -1.682035         0.405675
 H         2.146244        -1.571865        -1.418383
 H         5.280657         1.048779        -1.470375
 H         5.332881         0.078570         0.131450
 H         5.163510        -0.733661        -1.482175
 H         0.843199         1.771423        -1.474595
 H         3.257405         2.282460         0.266530
