19
Iteration:  2161charge 0 multiplicity 1
 C        -0.087654        -0.549322         0.310200
 C         1.268188        -0.111086        -0.148139
 C         2.500277        -0.977408        -0.664752
 C         3.382607         0.307980        -0.840101
 C         4.905940         0.262709        -0.892904
 O         2.614884         0.927583        -1.940672
 C         1.673822         1.304502        -0.953584
 C         2.766292         1.303107         0.193422
 O         1.865188         0.481856         1.073202
 H         0.020431        -1.130701         1.247430
 H        -0.627040         0.420156         0.484806
 H        -0.684477        -1.123538        -0.307723
 H         2.844672        -1.545885         0.169832
 H         2.370862        -1.704992        -1.636103
 H         5.215646         1.288651        -0.779017
 H         5.187731        -0.318014         0.026441
 H         5.393231        -0.218002        -1.812274
 H         0.762174         1.994408        -1.159394
 H         3.264924         2.131417         0.675856
