19
Iteration:  3489charge 0 multiplicity 1
 C        -0.141012        -0.587487         0.212801
 C         1.269237        -0.084405        -0.049599
 C         2.424548        -1.040223        -0.668953
 C         3.403700         0.321390        -0.876947
 C         4.868567         0.276327        -0.877575
 O         2.670836         0.902743        -1.935432
 C         1.641468         1.309982        -0.989660
 C         2.665818         1.357741         0.190610
 O         2.010459         0.511285         1.149557
 H        -0.082416        -1.437006         1.011765
 H        -0.818451         0.183182         0.684141
 H        -0.607970        -1.054094        -0.661809
 H         2.953803        -1.706475         0.065339
 H         2.347963        -1.508454        -1.650281
 H         5.301818         1.217900        -1.319324
 H         5.109703         0.303933         0.327376
 H         5.403392        -0.676496        -1.275824
 H         0.971130         2.045459        -1.362412
 H         3.277614         2.199670         0.551960
