19
Iteration:   665charge 0 multiplicity 1
 C        -0.073190        -0.645237         0.121275
 C         1.337025        -0.093076        -0.017024
 C         2.490344        -0.927095        -0.569550
 C         3.406203         0.389488        -0.776580
 C         4.876967         0.189706        -1.002263
 O         2.693378         0.923422        -1.989371
 C         1.633744         1.140267        -0.896573
 C         2.637723         1.327148         0.217581
 O         1.840698         0.632804         1.156560
 H        -0.180153        -1.330143         0.983167
 H        -0.778389         0.336062         0.218285
 H        -0.342274        -1.020689        -0.842274
 H         3.010954        -1.305483         0.406252
 H         2.516372        -1.598473        -1.362951
 H         5.601876         1.002936        -1.132825
 H         5.271588        -0.543446        -0.218736
 H         4.948331        -0.317932        -1.975132
 H         0.950752         1.900680        -1.234087
 H         3.091330         2.237979         0.651410
