19
Iteration:  1775
 C        -0.033038        -0.706802         0.210478
 C         1.279002        -0.060750         0.013621
 C         2.459825        -0.853625        -0.558015
 C         3.396518         0.365851        -0.852435
 C         4.876003         0.162975        -0.920117
 O         2.684942         0.861191        -1.976200
 C         1.626086         1.241082        -1.003009
 C         2.654702         1.407025         0.134118
 O         1.902172         0.600602         1.161620
 H         0.057615        -1.497886         0.933857
 H        -0.803060        -0.102518         0.662427
 H        -0.302954        -0.997101        -0.875069
 H         2.816788        -1.484927         0.286312
 H         2.240939        -1.462448        -1.406299
 H         5.588591         0.881138        -1.417590
 H         5.283349        -0.143395         0.077250
 H         4.985585        -0.742301        -1.456258
 H         0.946833         1.930055        -1.385132
 H         3.027236         2.399843         0.406557
