19
Iteration:  3101
 C        -0.072232        -0.673739         0.040816
 C         1.294505        -0.030009        -0.017670
 C         2.508721        -0.980457        -0.404260
 C         3.383458         0.294100        -0.779887
 C         4.880834         0.160655        -1.142266
 O         2.717543         0.844659        -1.880522
 C         1.653832         1.189194        -0.940978
 C         2.663851         1.438271         0.177643
 O         1.857337         0.729056         1.207417
 H        -0.207068        -1.307282         0.920699
 H        -0.962424        -0.076067         0.046749
 H        -0.188726        -1.325877        -0.854467
 H         2.725860        -1.634726         0.421908
 H         2.145292        -1.451553        -1.274646
 H         5.171094         1.281074        -1.385332
 H         5.415100        -0.358371        -0.284400
 H         4.933234        -0.544005        -1.954786
 H         0.964414         1.974202        -1.300317
 H         3.396421         2.326148         0.332211
