19
Iteration:  4668
 C        -0.118196        -0.739337         0.171832
 C         1.246555        -0.099521        -0.029417
 C         2.531189        -0.848556        -0.522713
 C         3.428186         0.300879        -0.822799
 C         4.877564         0.135762        -0.923609
 O         2.669175         0.952447        -1.952400
 C         1.695253         1.279603        -0.944627
 C         2.719215         1.383614         0.188233
 O         1.851321         0.603364         1.073258
 H        -0.152781        -1.716225         0.669522
 H        -0.640092        -0.065688         0.972629
 H        -0.830689        -0.849692        -0.676187
 H         3.008823        -1.366416         0.348846
 H         2.343709        -1.583838        -1.312497
 H         5.129519         0.812012        -1.818490
 H         5.592678         0.323322        -0.110295
 H         4.991276        -0.837513        -1.410903
 H         0.843074         1.932365        -1.455620
 H         3.174954         2.347467         0.544507
