19
Iteration:  3707charge 0 multiplicity 1
 C         0.024600        -0.649145         0.066282
 C         1.307182        -0.063012        -0.081800
 C         2.485110        -0.840004        -0.520036
 C         3.353649         0.303823        -0.834318
 C         4.865851         0.154989        -1.042019
 O         2.650809         0.904811        -1.911562
 C         1.632418         1.220318        -0.882555
 C         2.650462         1.347048         0.233499
 O         1.878963         0.619048         1.165265
 H         0.089769        -1.496487         0.862315
 H        -0.765400         0.071309         0.376488
 H        -0.451562        -1.147329        -0.832883
 H         2.680585        -1.614094         0.281327
 H         2.205816        -1.470051        -1.457403
 H         5.440731         1.124997        -1.105193
 H         5.483840        -0.196087        -0.064994
 H         5.195266        -0.664435        -1.724290
 H         1.014011         1.981934        -1.301386
 H         3.141045         2.179519         0.728054
