19
Iteration:  1891
 C        -0.068324        -0.663181        -0.074362
 C         1.300888        -0.030322        -0.123163
 C         2.560718        -0.877985        -0.332447
 C         3.485951         0.245446        -0.710763
 C         4.920145         0.134598        -1.263721
 O         2.527581         0.876801        -1.873413
 C         1.684522         1.252328        -0.856002
 C         2.655020         1.341493         0.269072
 O         1.862840         0.704382         1.205511
 H        -0.160557        -1.522317         0.601004
 H        -1.017647        -0.150642         0.199182
 H        -0.157618        -0.936190        -1.056172
 H         2.704109        -1.417034         0.709431
 H         2.543562        -1.719884        -1.038161
 H         5.279878         1.027089        -1.608038
 H         5.522871        -0.206988        -0.395538
 H         4.893020        -0.645099        -2.032591
 H         0.858340         2.018960        -1.115458
 H         3.162756         2.265112         0.616700
