19
Iteration:  3759
 C         0.022998        -0.666588        -0.026376
 C         1.322626         0.006166        -0.046941
 C         2.525588        -0.912533        -0.416533
 C         3.375279         0.302244        -0.770382
 C         4.846009         0.139592        -1.213522
 O         2.679393         0.881241        -1.851993
 C         1.629520         1.234298        -0.859619
 C         2.639804         1.427373         0.279868
 O         1.821306         0.614387         1.160090
 H        -0.018045        -1.401889         0.795268
 H        -0.801903         0.037227         0.153306
 H        -0.317593        -1.147804        -0.889818
 H         2.627906        -1.450348         0.567718
 H         2.343872        -1.739860        -1.138156
 H         5.705253         0.922792        -1.036727
 H         5.403391        -0.589160        -0.619357
 H         5.021924        -0.292601        -2.258270
 H         0.916325         1.836650        -1.423028
 H         3.107399         2.368711         0.659038
