19
Iteration:  3098charge 0 multiplicity 1
 C        -0.066556        -0.654898         0.014636
 C         1.284001        -0.039793         0.030034
 C         2.518598        -0.945988        -0.387424
 C         3.370510         0.291035        -0.757333
 C         4.893755         0.180618        -1.152519
 O         2.709591         0.845547        -1.899834
 C         1.668060         1.188716        -0.915631
 C         2.662992         1.430647         0.131913
 O         1.848563         0.706437         1.204346
 H        -0.283827        -1.397035         0.871430
 H        -0.916207        -0.043273        -0.012108
 H        -0.184857        -1.287156        -0.847646
 H         2.703600        -1.669709         0.461112
 H         2.080730        -1.522535        -1.207944
 H         5.211949         1.179115        -1.461083
 H         5.450235        -0.293954        -0.244801
 H         4.948086        -0.577627        -2.004167
 H         1.020230         1.947243        -1.216211
 H         3.409604         2.269943         0.323551
