19
Iteration:    10
 C        -0.077538        -0.648194        -0.003831
 C         1.303499        -0.146158        -0.076673
 C         2.517250        -0.957585        -0.479592
 C         3.383736         0.337151        -0.829938
 C         4.836112         0.258377        -1.053333
 O         2.700758         0.938001        -1.869241
 C         1.689169         1.290532        -0.855367
 C         2.724029         1.375173         0.194028
 O         1.775908         0.529235         1.194818
 H         0.041271        -1.383961         0.830703
 H        -0.581312         0.147411         0.444979
 H        -0.563779        -1.227094        -0.940637
 H         2.907467        -1.601034         0.306458
 H         2.359574        -1.449569        -1.554684
 H         5.229149        -0.422485        -0.180068
 H         4.967742        -0.194432        -1.966855
 H         5.433697         1.274663        -1.084643
 H         0.946452         2.040201        -1.200231
 H         3.457764         2.063978         0.487576
