19
Iteration:  4352charge 0 multiplicity 1
 C        -0.000644        -0.754908         0.202911
 C         1.339746        -0.078215        -0.076079
 C         2.535993        -0.880455        -0.529353
 C         3.385245         0.312677        -0.718341
 C         4.818589         0.118246        -0.981203
 O         2.643689         0.864580        -1.925381
 C         1.704517         1.235669        -1.040204
 C         2.631633         1.491678         0.186062
 O         1.845328         0.686102         1.106479
 H         0.054394        -1.543861         1.058239
 H        -0.798764        -0.009460         0.494373
 H        -0.473735        -1.179280        -0.699380
 H         2.789863        -1.528494         0.297539
 H         2.402306        -1.432673        -1.426931
 H         5.480278         0.881600        -0.715181
 H         5.360246        -0.773752        -0.548278
 H         5.015203        -0.001349        -2.062683
 H         0.869793         1.812069        -1.307227
 H         2.839786         2.468149         0.575963
