19
Iteration:  1128charge 0 multiplicity 1
 C        -0.079125        -0.687270         0.268072
 C         1.277996        -0.014830        -0.141215
 C         2.455493        -0.970825        -0.547042
 C         3.345603         0.292151        -0.853911
 C         4.902253         0.158931        -0.826159
 O         2.678565         0.945813        -2.021125
 C         1.617088         1.211714        -0.969003
 C         2.673694         1.372181         0.079201
 O         1.945292         0.664689         1.154509
 H         0.208736        -1.662842         0.806489
 H        -0.714337        -0.081250         0.858682
 H        -0.656388        -1.138001        -0.560070
 H         2.980348        -1.369532         0.444776
 H         2.336318        -1.818407        -1.213877
 H         5.198222         1.109966        -1.234420
 H         5.281460         0.050699         0.133784
 H         5.192595        -0.508650        -1.629259
 H         0.915092         2.048233        -1.316193
 H         3.303258         2.097923         0.537243
