19
Iteration:  3313charge 0 multiplicity 1
 C        -0.054294        -0.696276         0.293234
 C         1.278556        -0.074405        -0.112501
 C         2.434053        -0.877382        -0.552255
 C         3.456661         0.295163        -0.861151
 C         4.919283         0.218348        -0.881875
 O         2.620511         0.903526        -1.910122
 C         1.648676         1.259837        -0.975562
 C         2.691324         1.404483         0.168246
 O         1.878047         0.565637         1.009689
 H        -0.068204        -1.340506         1.190621
 H        -0.807900         0.099339         0.589430
 H        -0.590770        -1.162450        -0.495481
 H         2.851124        -1.764196        -0.026388
 H         2.151247        -1.340122        -1.535121
 H         5.429345         1.182574        -0.783546
 H         5.212090        -0.371812         0.085260
 H         5.399131        -0.515704        -1.624500
 H         0.936355         2.001747        -1.312043
 H         3.361915         2.184291         0.463151
