19
Iteration:  4040charge 0 multiplicity 1
 C        -0.040244        -0.736239         0.121394
 C         1.301563        -0.046282        -0.056103
 C         2.543219        -0.894265        -0.507451
 C         3.393905         0.351112        -0.832199
 C         4.871287         0.084167        -0.957879
 O         2.553644         0.936752        -2.004975
 C         1.754167         1.230614        -0.908382
 C         2.686576         1.370022         0.177427
 O         1.792237         0.650559         1.158755
 H         0.249318        -1.222945         0.950636
 H        -0.740026         0.082522         0.443753
 H        -0.326810        -1.171384        -0.794956
 H         3.090639        -1.405854         0.269461
 H         2.374569        -1.489022        -1.352319
 H         5.395716         0.771820        -1.561217
 H         5.270087         0.284945        -0.035247
 H         5.189712        -0.888183        -1.281277
 H         1.068043         1.980919        -1.154937
 H         3.103467         2.188268         0.699416
