19
Iteration:  1683charge 0 multiplicity 1
 C        -0.029943        -0.595802         0.074822
 C         1.320627        -0.033301        -0.037173
 C         2.523389        -0.909031        -0.423805
 C         3.406358         0.278441        -0.859622
 C         4.877880         0.247149        -1.034331
 O         2.627492         0.798097        -1.887661
 C         1.632607         1.190523        -0.944846
 C         2.668496         1.329451         0.193090
 O         1.861906         0.641087         1.123797
 H        -0.090686        -1.217609         1.003744
 H        -0.739859         0.210871         0.382424
 H        -0.287252        -1.063775        -0.828792
 H         2.805232        -1.474316         0.432522
 H         2.316723        -1.514289        -1.257711
 H         5.198908         1.285327        -1.174900
 H         5.207587        -0.152785        -0.071974
 H         5.314627        -0.374104        -1.904878
 H         0.757564         1.805479        -1.380860
 H         3.237127         2.210399         0.494777
