19
Iteration:  4045charge 0 multiplicity 1
 C        -0.036395        -0.709376         0.099012
 C         1.329045        -0.072405        -0.022596
 C         2.564844        -0.863712        -0.478227
 C         3.393363         0.332288        -0.844372
 C         4.867988         0.097241        -0.966301
 O         2.565790         0.942417        -2.003932
 C         1.723721         1.247051        -0.952060
 C         2.704425         1.353843         0.169185
 O         1.781138         0.648791         1.181493
 H         0.090026        -1.399999         1.075605
 H        -0.710816         0.100041         0.317522
 H        -0.249197        -1.191544        -0.902990
 H         3.101003        -1.514341         0.256070
 H         2.269943        -1.558255        -1.339869
 H         5.363032         0.777727        -1.761290
 H         5.307721         0.240486         0.108176
 H         5.070210        -0.965360        -1.284102
 H         0.890169         2.025724        -1.016639
 H         3.090837         2.247315         0.736629
