19
Iteration:  2537charge 0 multiplicity 1
 C        -0.042680        -0.669321         0.043049
 C         1.357084        -0.017457        -0.043571
 C         2.560370        -0.883813        -0.418100
 C         3.336196         0.325507        -0.869014
 C         4.769225         0.043102        -1.072995
 O         2.643820         0.891985        -1.952957
 C         1.685619         1.294248        -0.900659
 C         2.726889         1.408414         0.229943
 O         1.838600         0.625907         1.178960
 H        -0.012416        -1.158865         1.115090
 H        -0.956813        -0.032609        -0.134521
 H        -0.182321        -1.658213        -0.577815
 H         2.955598        -1.296240         0.557216
 H         2.408634        -1.592812        -1.295024
 H         5.204420         1.067454        -1.275359
 H         5.216214        -0.198887        -0.118311
 H         5.006413        -0.784856        -1.778520
 H         0.881769         2.025584        -1.293524
 H         3.389199         2.175710         0.649768
