19
Iteration:  4308
 C        -0.060332        -0.685866         0.183997
 C         1.274008        -0.050499        -0.031605
 C         2.542027        -0.930400        -0.543068
 C         3.451062         0.210430        -0.854773
 C         4.998667         0.181161        -0.974604
 O         2.594241         0.896792        -2.013178
 C         1.651377         1.203957        -0.958740
 C         2.603805         1.413583         0.289309
 O         1.786211         0.725811         1.121442
 H         0.172728        -1.713536         0.686311
 H        -0.666302        -0.021654         0.817618
 H        -0.494595        -0.903829        -0.802446
 H         2.894996        -1.473513         0.341549
 H         2.304775        -1.611755        -1.322473
 H         5.339165         1.170562        -1.108466
 H         5.603953        -0.209657        -0.075772
 H         5.431620        -0.429353        -1.792358
 H         0.865115         1.813024        -1.275990
 H         3.268614         2.150334         0.559533
