19
Iteration:  2083charge 0 multiplicity 1
 C        -0.070587        -0.737537        -0.027227
 C         1.252624         0.015015        -0.030370
 C         2.530660        -0.813643        -0.431559
 C         3.417956         0.300687        -0.835298
 C         5.006748         0.039478        -1.163666
 O         2.568385         0.894762        -1.893740
 C         1.641576         1.312038        -0.825071
 C         2.679738         1.438001         0.295981
 O         1.854646         0.604948         1.186670
 H         0.014081        -1.648945         0.528124
 H        -0.826838        -0.154427         0.489080
 H        -0.381512        -0.800865        -1.092931
 H         2.827720        -1.415204         0.434185
 H         2.248926        -1.656433        -1.258366
 H         5.390953         0.911284        -1.762818
 H         5.557464        -0.341753        -0.333532
 H         5.166087        -0.799841        -1.933672
 H         0.726665         1.884832        -1.225489
 H         3.343268         2.220412         0.773629
