19
Iteration:  4438charge 0 multiplicity 1
 C        -0.155214        -0.612317         0.113779
 C         1.333734        -0.150102         0.011411
 C         2.533958        -0.954953        -0.464167
 C         3.452710         0.295177        -0.809197
 C         4.996698         0.239757        -1.093478
 O         2.661924         0.858858        -1.961156
 C         1.644774         1.207247        -0.899985
 C         2.620065         1.361627         0.208979
 O         1.817610         0.666029         1.145729
 H        -0.268093        -1.306041         1.003478
 H        -0.699723         0.270895         0.366619
 H        -0.532211        -1.095298        -0.774779
 H         2.960921        -1.731162         0.164781
 H         2.307644        -1.352342        -1.435110
 H         5.172113         1.044229        -1.733968
 H         5.346308         0.392017        -0.035774
 H         5.287908        -0.687806        -1.621130
 H         0.889317         1.937173        -1.047235
 H         3.086959         2.324927         0.443801
