19
Iteration:  1384charge 0 multiplicity 1
 C        -0.090678        -0.558706         0.018615
 C         1.337446        -0.149268         0.009777
 C         2.509416        -0.983723        -0.313160
 C         3.414320         0.260041        -0.748609
 C         4.885697         0.217161        -1.120802
 O         2.603754         0.852955        -1.940103
 C         1.688308         1.199389        -0.935800
 C         2.600987         1.378729         0.197096
 O         1.900807         0.684060         1.136492
 H        -0.319690        -1.315272         0.742766
 H        -0.669865         0.372348         0.096197
 H        -0.048021        -1.054634        -0.993093
 H         2.762047        -1.366995         0.671258
 H         2.509811        -1.809629        -1.144089
 H         5.055930         1.145932        -1.645747
 H         5.646391         0.287562        -0.307181
 H         5.259776        -0.521310        -1.773932
 H         0.937063         1.738514        -1.443478
 H         2.988349         2.399398         0.466472
