19
Iteration:  1210charge 0 multiplicity 1
 C        -0.105444        -0.637728         0.067126
 C         1.310536        -0.050710        -0.055534
 C         2.629648        -0.953069        -0.359309
 C         3.433942         0.271982        -0.797823
 C         4.799305         0.235032        -1.147463
 O         2.618400         0.789606        -1.934149
 C         1.721890         1.277294        -0.965416
 C         2.677010         1.294123         0.223632
 O         1.802532         0.717855         1.182747
 H        -0.198492        -1.253397         0.917013
 H        -0.892482         0.161129         0.065167
 H        -0.268177        -1.166126        -0.902161
 H         2.886596        -1.323699         0.558544
 H         2.627704        -1.770285        -1.137338
 H         5.163860         1.250807        -1.397820
 H         5.391893        -0.112981        -0.257294
 H         5.075424        -0.499939        -1.873823
 H         1.029750         2.045073        -1.189682
 H         3.186709         2.140988         0.748729
