19
Iteration:  4705
 C        -0.118680        -0.584826         0.039449
 C         1.345038        -0.033581        -0.012407
 C         2.505742        -0.969708        -0.508088
 C         3.429046         0.273554        -0.810384
 C         4.870006         0.284125        -0.985579
 O         2.604665         0.841640        -1.885267
 C         1.653938         1.160926        -0.920113
 C         2.715661         1.331653         0.197035
 O         1.887983         0.628127         1.132972
 H        -0.251024        -1.614794         0.370480
 H        -0.600049         0.077893         0.735699
 H        -0.554619        -0.253123        -0.915045
 H         2.813330        -1.595139         0.317607
 H         2.241854        -1.573356        -1.392931
 H         4.979908         1.032400        -1.811193
 H         5.506592         0.629452        -0.146735
 H         5.308412        -0.698359        -1.346630
 H         0.824283         1.711011        -1.289840
 H         3.383763         2.053387         0.610633
