19
Iteration:  2989charge 0 multiplicity 1
 C        -0.003532        -0.716145         0.297811
 C         1.267701         0.020952        -0.163201
 C         2.508302        -0.947219        -0.480231
 C         3.343095         0.322676        -0.786355
 C         4.837259         0.082038        -0.842740
 O         2.617325         0.907160        -2.064165
 C         1.654135         1.336165        -1.073199
 C         2.735320         1.347162         0.164598
 O         1.845356         0.650588         1.105611
 H         0.459183        -1.335440         1.115630
 H        -0.531508         0.027870         0.808973
 H        -0.518797        -1.214310        -0.463457
 H         2.871563        -1.491339         0.395520
 H         2.364702        -1.547390        -1.354836
 H         5.490385         0.943789        -0.891442
 H         5.406664        -0.329320         0.072486
 H         5.243243        -0.570007        -1.675932
 H         0.827016         1.784288        -1.537371
 H         3.212450         2.301478         0.545068
