19
Iteration:  2292charge 0 multiplicity 1
 C        -0.006505        -0.541088         0.172939
 C         1.326409        -0.039744        -0.039302
 C         2.467195        -0.965121        -0.601573
 C         3.358154         0.246306        -0.788968
 C         4.867381         0.261495        -0.919637
 O         2.656577         0.909988        -1.954437
 C         1.563560         1.213322        -0.931251
 C         2.744718         1.306941         0.159396
 O         1.886273         0.560300         1.096248
 H         0.121053        -1.418014         0.853220
 H        -0.483468         0.135714         0.945591
 H        -0.564273        -0.594742        -0.716616
 H         2.649832        -1.673603         0.178229
 H         2.334430        -1.521011        -1.623232
 H         5.227997         1.187023        -1.208201
 H         5.253160        -0.175927        -0.002636
 H         5.182324        -0.423080        -1.725632
 H         0.763761         1.972981        -1.185563
 H         3.322136         2.033849         0.681822
