19
Iteration:  1708
 C        -0.143045        -0.668192        -0.008439
 C         1.288912        -0.047154        -0.038893
 C         2.537673        -0.957430        -0.403972
 C         3.499109         0.271704        -0.608971
 C         4.859281         0.269344        -1.138133
 O         2.549830         0.804048        -1.970079
 C         1.773768         1.213451        -0.970120
 C         2.700172         1.375008         0.242257
 O         1.873943         0.680557         1.177006
 H        -0.362514        -1.352565         0.811773
 H        -0.877742         0.147476         0.251004
 H        -0.263105        -1.060447        -1.038845
 H         2.773403        -1.496241         0.622333
 H         2.465970        -1.597550        -1.218761
 H         4.842636         1.130843        -1.757245
 H         5.675535         0.179791        -0.325833
 H         4.970064        -0.565362        -1.794596
 H         0.925118         1.873802        -1.145567
 H         3.224598         2.338604         0.495450
