19
Iteration:  2454charge 0 multiplicity 1
 C        -0.203400        -0.577369         0.200146
 C         1.281772        -0.036471        -0.094230
 C         2.543783        -0.978829        -0.469087
 C         3.401093         0.249992        -0.832169
 C         4.932827         0.236489        -0.967392
 O         2.644713         0.884495        -1.944177
 C         1.634475         1.221419        -0.922287
 C         2.663862         1.332184         0.157706
 O         1.972744         0.604922         1.068930
 H        -0.310299        -1.546277         0.577722
 H        -0.773016         0.013593         0.967585
 H        -0.668050        -0.571759        -0.755672
 H         2.774067        -1.544874         0.354748
 H         2.315697        -1.654287        -1.353213
 H         5.379566         1.211056        -1.100528
 H         5.254062        -0.157235         0.022964
 H         5.368276        -0.351943        -1.850413
 H         0.917260         2.047723        -1.214678
 H         3.157546         2.186967         0.568013
