19
Iteration:  1727charge 0 multiplicity 1
 C        -0.046345        -0.624295        -0.020664
 C         1.295744        -0.065496         0.019115
 C         2.541377        -0.920997        -0.272594
 C         3.424615         0.272276        -0.850374
 C         4.892885         0.217018        -1.192245
 O         2.685205         0.842683        -1.938970
 C         1.608648         1.211417        -0.923824
 C         2.689642         1.331029         0.227621
 O         1.769435         0.678022         1.192457
 H        -0.129135        -1.442501         0.744816
 H        -0.859865         0.121972         0.232904
 H        -0.133942        -0.925438        -1.012365
 H         3.010863        -1.436397         0.568906
 H         2.343700        -1.606124        -1.053980
 H         5.131907         1.017395        -1.876099
 H         5.534607         0.350845        -0.278687
 H         5.233864        -0.769866        -1.691595
 H         0.767919         1.996052        -1.135121
 H         3.286591         2.145734         0.694930
