19
Iteration:   864charge 0 multiplicity 1
 C        -0.060503        -0.694436         0.031396
 C         1.344296        -0.081521        -0.072279
 C         2.562991        -0.897421        -0.327036
 C         3.397256         0.349992        -0.715103
 C         4.847556         0.132152        -1.182821
 O         2.675487         0.914982        -1.923553
 C         1.725767         1.218199        -0.964997
 C         2.606420         1.400965         0.245056
 O         1.808415         0.660320         1.206592
 H        -0.273231        -1.200163         0.948422
 H        -0.765590         0.116348        -0.008032
 H        -0.227629        -1.367851        -0.875080
 H         2.865875        -1.676204         0.284490
 H         2.151313        -1.424555        -1.272913
 H         5.724227         0.907025        -1.210774
 H         5.244747        -0.577083        -0.524552
 H         4.776817        -0.484651        -2.128851
 H         0.931573         1.858668        -1.373740
 H         3.088733         2.350339         0.561774
