19
Iteration:   825
 C        -0.071000        -0.653183         0.140778
 C         1.284540        -0.078055        -0.040889
 C         2.481810        -0.918526        -0.454921
 C         3.480722         0.306940        -0.889298
 C         4.890393         0.190937        -0.993090
 O         2.631644         0.886204        -1.990996
 C         1.707878         1.313562        -0.990742
 C         2.628049         1.336141         0.229582
 O         1.853912         0.619765         1.150682
 H         0.053502        -1.563649         0.836782
 H        -0.755163         0.077384         0.576240
 H        -0.538813        -1.213371        -0.705025
 H         2.774559        -1.575005         0.453147
 H         2.346307        -1.532584        -1.333421
 H         5.328209         1.116950        -1.151340
 H         5.139988        -0.199366         0.100328
 H         5.235837        -0.515619        -1.732493
 H         0.956133         2.081481        -1.242223
 H         3.204929         2.093442         0.709268
