19
Iteration:  2560
 C        -0.079650        -0.605701         0.011528
 C         1.315401        -0.034985        -0.029851
 C         2.550773        -0.945139        -0.324195
 C         3.436973         0.312900        -0.726155
 C         4.943031         0.103025        -1.228386
 O         2.584945         0.881067        -1.915499
 C         1.676743         1.264905        -0.867548
 C         2.665301         1.333999         0.229699
 O         1.825971         0.681620         1.155194
 H        -0.383881        -1.137916         0.959692
 H        -0.905550         0.105177        -0.336405
 H        -0.122776        -1.485486        -0.768376
 H         2.760232        -1.455155         0.615061
 H         2.564665        -1.543098        -1.332209
 H         5.383414         1.058151        -1.538420
 H         5.582684        -0.290356        -0.470431
 H         4.911545        -0.702891        -2.027350
 H         0.806753         1.909604        -1.259285
 H         3.067936         2.231296         0.640228
