19
Iteration:  2734
 C        -0.085213        -0.563470        -0.042432
 C         1.310126        -0.016210         0.018808
 C         2.569627        -0.914423        -0.347006
 C         3.416706         0.272713        -0.715563
 C         4.920216         0.209477        -1.127558
 O         2.536131         0.710515        -1.934247
 C         1.661127         1.144717        -0.899828
 C         2.696027         1.393327         0.200063
 O         1.904774         0.698752         1.176551
 H        -0.580356        -1.002556         0.779174
 H        -0.744792         0.315312        -0.306090
 H        -0.161390        -1.308255        -0.884347
 H         2.749074        -1.567982         0.477394
 H         2.385601        -1.342235        -1.328344
 H         5.248433         1.209833        -1.452769
 H         5.525889        -0.124179        -0.317234
 H         5.043805        -0.462850        -2.091721
 H         0.897730         1.936092        -1.187719
 H         3.062805         2.314071         0.497864
