19
Iteration:  1765
 C        -0.045338        -0.701666         0.167722
 C         1.333639        -0.013412         0.006344
 C         2.520858        -0.834077        -0.436950
 C         3.388768         0.413867        -0.761082
 C         4.905723         0.087598        -0.960400
 O         2.639026         0.861330        -2.037341
 C         1.605326         1.257549        -0.992039
 C         2.626428         1.352846         0.156942
 O         1.898279         0.615077         1.139103
 H        -0.023719        -1.633797         0.689529
 H        -0.786898         0.003000         0.444082
 H        -0.492517        -1.147481        -0.833145
 H         2.895075        -1.598176         0.245293
 H         2.287045        -1.311578        -1.441882
 H         5.365645         0.974614        -1.536562
 H         5.435323         0.078628        -0.012280
 H         4.960255        -0.780877        -1.528440
 H         0.815420         1.793514        -1.356659
 H         3.266664         2.087846         0.626370
