19
Iteration:  2186
 C        -0.072022        -0.605149         0.135758
 C         1.303076        -0.114632        -0.018125
 C         2.463654        -0.948691        -0.506531
 C         3.349546         0.313808        -0.859228
 C         4.853277         0.170578        -1.031317
 O         2.710958         0.994348        -1.972740
 C         1.650258         1.285086        -0.913161
 C         2.713779         1.334894         0.186268
 O         1.890526         0.543059         1.196462
 H        -0.128765        -1.255520         1.033825
 H        -0.867579         0.134142         0.079919
 H        -0.242616        -1.361539        -0.655561
 H         2.903959        -1.624578         0.283137
 H         2.238560        -1.500616        -1.378928
 H         5.253877         1.219822        -1.020386
 H         5.381396        -0.465094        -0.214427
 H         4.970161        -0.284487        -2.042088
 H         0.818415         1.946559        -1.056072
 H         3.255968         2.199800         0.557808
