19
Iteration:  3309
 C        -0.085226        -0.704942         0.265355
 C         1.308079        -0.061302        -0.093401
 C         2.424753        -0.905377        -0.550465
 C         3.431547         0.293252        -0.849845
 C         4.901452         0.177759        -0.878082
 O         2.616737         0.934727        -1.936569
 C         1.684363         1.268392        -0.975854
 C         2.682342         1.407151         0.152368
 O         1.893436         0.567642         1.028763
 H         0.137581        -1.284692         1.138772
 H        -0.771424         0.074033         0.631915
 H        -0.504420        -1.305033        -0.591968
 H         2.878227        -1.603866         0.093626
 H         2.225856        -1.492753        -1.439063
 H         5.390990         1.210901        -0.878590
 H         5.157825        -0.205345         0.043096
 H         5.304002        -0.496735        -1.568022
 H         0.855307         2.001750        -1.269888
 H         3.337150         2.201227         0.604568
