19
Iteration:  4790charge 0 multiplicity 1
 C        -0.076539        -0.799212         0.187587
 C         1.237701        -0.005899        -0.064571
 C         2.452103        -0.862913        -0.429592
 C         3.384243         0.343518        -0.802074
 C         4.884766         0.052402        -1.031654
 O         2.735789         0.988638        -1.917060
 C         1.699171         1.281474        -0.961542
 C         2.686924         1.366411         0.177381
 O         1.883641         0.631546         1.086761
 H        -0.164050        -1.268325         1.147896
 H        -0.954940        -0.087503        -0.012933
 H        -0.194179        -1.746899        -0.460354
 H         2.856650        -1.587991         0.255037
 H         2.283228        -1.343517        -1.424848
 H         5.339665         1.019757        -0.713096
 H         5.310094        -0.737104        -0.419444
 H         5.145920        -0.021974        -2.102004
 H         0.804588         1.856281        -1.339682
 H         2.790513         2.328137         0.538547
