19
Iteration:  1202
 C        -0.107681        -0.646662         0.074791
 C         1.332033        -0.089276         0.004109
 C         2.576411        -0.957613        -0.344615
 C         3.348694         0.281840        -0.786865
 C         4.863888         0.229614        -1.112282
 O         2.650197         0.811977        -1.953867
 C         1.753200         1.313347        -0.922978
 C         2.685664         1.359691         0.206032
 O         1.817625         0.676929         1.097159
 H        -0.310044        -1.401564         0.851920
 H        -0.848315         0.103944         0.171640
 H        -0.324474        -1.125644        -0.942115
 H         2.914454        -1.351876         0.616455
 H         2.467113        -1.763409        -1.041110
 H         5.219551         1.254742        -1.644058
 H         5.416100        -0.012243        -0.227223
 H         4.890954        -0.615047        -1.920460
 H         0.784489         1.843516        -1.210011
 H         3.223544         2.190020         0.724963
