19
Iteration:  2967
 C        -0.038440        -0.726240         0.231712
 C         1.292581        -0.060464        -0.031004
 C         2.488452        -0.854605        -0.510107
 C         3.326986         0.310095        -0.804887
 C         4.870604         0.067996        -0.910006
 O         2.671722         0.911032        -1.953788
 C         1.646352         1.223153        -0.970543
 C         2.622306         1.393008         0.066887
 O         1.934586         0.733734         1.056810
 H         0.009525        -1.285182         1.210580
 H        -0.785373         0.023648         0.297975
 H        -0.195210        -1.337537        -0.613286
 H         2.867392        -1.428809         0.328292
 H         2.283104        -1.498981        -1.341259
 H         5.670482         0.741029        -0.634769
 H         5.153486        -0.646077        -0.043063
 H         5.255536        -0.468183        -1.848463
 H         0.830321         1.834064        -1.218761
 H         3.045856         2.358849         0.431773
