19
Iteration:   495charge 0 multiplicity 1
 C        -0.044554        -0.639415         0.156105
 C         1.316046        -0.185487         0.002298
 C         2.495639        -0.918547        -0.436439
 C         3.387745         0.308619        -0.781998
 C         4.875674         0.194394        -0.950131
 O         2.604715         0.905528        -2.020187
 C         1.706050         1.284835        -0.983088
 C         2.676735         1.360174         0.245256
 O         1.846674         0.610458         1.060824
 H        -0.064913        -1.394515         0.947626
 H        -0.638763         0.209671         0.251097
 H        -0.326876        -1.209545        -0.846038
 H         2.862587        -1.659402         0.165418
 H         2.316061        -1.454402        -1.474428
 H         5.146553         1.291325        -0.790840
 H         5.515015        -0.353266        -0.296334
 H         5.193038         0.022081        -2.015847
 H         0.928143         2.034572        -1.193204
 H         3.226589         2.235216         0.667532
