19
Iteration:  3748
 C        -0.063760        -0.722216        -0.024114
 C         1.297303        -0.068905        -0.083320
 C         2.499945        -0.862600        -0.317362
 C         3.408802         0.356269        -0.812533
 C         4.894306         0.083329        -1.177407
 O         2.651941         0.940621        -1.890913
 C         1.692341         1.268166        -0.916780
 C         2.656510         1.313854         0.262317
 O         1.852478         0.659161         1.196596
 H        -0.071236        -1.511297         0.742204
 H        -0.876047        -0.005796         0.153186
 H        -0.108335        -1.196349        -0.971557
 H         3.018633        -1.224498         0.609861
 H         2.385202        -1.594362        -1.140071
 H         5.358891         1.149631        -1.115543
 H         5.160380        -0.716615        -0.507524
 H         4.749455        -0.255839        -2.251514
 H         0.843937         1.953527        -1.110535
 H         3.187114         2.230247         0.626758
