19
Iteration:  2482
 C        -0.021017        -0.567077         0.348263
 C         1.334590        -0.038086        -0.123664
 C         2.484036        -0.951891        -0.611586
 C         3.353650         0.312592        -0.812262
 C         4.841224         0.227178        -0.867337
 O         2.670800         0.928641        -2.012414
 C         1.709154         1.197553        -1.038467
 C         2.636192         1.260297         0.184389
 O         1.873366         0.597481         1.085132
 H         0.060082        -1.592720         0.932605
 H        -0.607621         0.102489         1.008223
 H        -0.780624        -0.759431        -0.501961
 H         2.751336        -1.662955         0.281865
 H         2.176531        -1.553986        -1.483344
 H         5.377699         1.213224        -1.030694
 H         5.062541        -0.252951         0.078399
 H         5.160671        -0.492418        -1.616545
 H         1.141492         2.068428        -1.362884
 H         3.242396         2.062284         0.657615
