19
Iteration:  2619
 C        -0.117975        -0.595325         0.165030
 C         1.275245        -0.025848        -0.112333
 C         2.497851        -0.876938        -0.482359
 C         3.432446         0.252769        -0.879715
 C         4.894687         0.198786        -0.907760
 O         2.581216         0.816170        -1.947976
 C         1.673141         1.224785        -0.942931
 C         2.714802         1.315121         0.158913
 O         1.925069         0.641170         1.101336
 H         0.035767        -1.455220         0.786816
 H        -0.522556         0.126588         0.900075
 H        -0.727142        -0.793144        -0.669526
 H         2.740473        -1.349964         0.533355
 H         2.364178        -1.687600        -1.271511
 H         5.310108         1.205787        -1.036433
 H         5.254398        -0.309320         0.074693
 H         5.320574        -0.292361        -1.772287
 H         0.817920         1.823687        -1.205619
 H         3.206370         2.326324         0.302768
