19
Iteration:  2156
 C        -0.094297        -0.520696         0.332443
 C         1.288746        -0.127459        -0.178179
 C         2.436132        -0.958911        -0.658666
 C         3.420900         0.339953        -0.841967
 C         4.937340         0.269943        -0.846958
 O         2.628315         0.912135        -1.977029
 C         1.627789         1.284692        -0.893430
 C         2.771037         1.295464         0.158653
 O         1.856704         0.469841         1.065291
 H         0.118342        -1.138266         1.207390
 H        -0.692048         0.332048         0.614362
 H        -0.779824        -1.152392        -0.400463
 H         2.744730        -1.695208         0.162994
 H         2.415971        -1.506117        -1.549485
 H         5.297192         1.344137        -1.011534
 H         5.292701        -0.373143        -0.059354
 H         5.383867        -0.138381        -1.705518
 H         0.812244         1.911764        -1.102609
 H         3.336538         2.138536         0.649377
