19
Iteration:  1082
 C        -0.078217        -0.612856         0.111653
 C         1.343737        -0.043451        -0.136852
 C         2.535338        -0.917046        -0.465859
 C         3.442117         0.238615        -0.766024
 C         4.929864         0.199100        -1.066919
 O         2.609746         0.832862        -1.928611
 C         1.616068         1.195066        -0.901379
 C         2.667531         1.374983         0.199259
 O         1.831346         0.685259         1.185452
 H        -0.048700        -1.061059         1.092265
 H        -0.707198         0.244554         0.165117
 H        -0.471464        -1.412511        -0.571823
 H         2.779678        -1.556347         0.375343
 H         2.496988        -1.585532        -1.373420
 H         5.424886         1.207953        -0.952310
 H         5.342098        -0.412508        -0.403297
 H         5.109575        -0.161066        -2.084240
 H         0.795872         1.714920        -1.374039
 H         3.085537         2.353909         0.423667
