19
Iteration:  4253
 C        -0.113398        -0.599488        -0.001240
 C         1.290056        -0.150893        -0.002681
 C         2.596184        -1.008593        -0.356034
 C         3.408776         0.288294        -0.849622
 C         4.943651         0.283504        -1.136191
 O         2.580642         0.877807        -1.900214
 C         1.642708         1.256233        -0.954227
 C         2.636232         1.355023         0.206780
 O         1.864465         0.625328         1.179213
 H        -0.329366        -1.199818         1.005915
 H        -0.727487         0.275320         0.187527
 H        -0.431137        -1.049464        -0.952284
 H         2.931177        -1.389975         0.601810
 H         2.520895        -1.799712        -1.076826
 H         5.506201         0.934487        -1.733870
 H         5.266193         0.439162        -0.003042
 H         5.379987        -0.728919        -1.366213
 H         1.022363         2.018632        -1.310748
 H         3.227069         2.193587         0.392758
