19
Iteration:  1067
 C        -0.100401        -0.516441         0.132179
 C         1.319579         0.089380         0.118144
 C         2.086061         0.731286         1.291705
 C         3.267040         1.160485         0.416489
 O         4.476222         1.394773         1.004469
 C         2.716577         2.158830        -0.699438
 C         2.051586         0.889840        -1.253642
 C         3.104713        -0.071556        -0.683602
 O         2.304656        -1.048302        -0.098450
 H        -0.134349        -1.425069         0.660575
 H        -0.890882         0.131977         0.615145
 H        -0.368354        -0.803236        -0.967636
 H         1.679732         1.660424         1.659505
 H         2.232747         0.020024         2.184805
 H         4.404895         1.381339         1.914006
 H         1.923629         2.964837        -0.478227
 H         3.549758         2.555763        -1.330520
 H         1.718252         0.811485        -2.257307
 H         4.006873        -0.388241        -1.168791
