19
Iteration:  3955charge 0 multiplicity 1
 C        -0.049107        -0.377796         0.292831
 C         1.390897        -0.014362         0.067340
 C         2.115335         0.611220         1.293482
 C         3.222100         1.202747         0.361613
 O         4.455909         1.515533         0.986013
 C         2.546394         2.098136        -0.682168
 C         1.950152         0.832575        -1.161164
 C         3.223874         0.000393        -0.669720
 O         2.402668        -1.101153        -0.233160
 H        -0.368028        -1.424997         0.385740
 H        -0.599801         0.072418         1.185078
 H        -0.661192        -0.147315        -0.635730
 H         1.464095         1.324114         1.931078
 H         2.551378        -0.414569         1.753822
 H         4.247621         1.825055         1.953665
 H         1.900295         2.989970        -0.525162
 H         3.266930         2.282163        -1.489648
 H         1.438754         0.674868        -2.131863
 H         4.191180        -0.290879        -1.313578
