19
Iteration:  3716charge 0 multiplicity 1
 C        -0.039077        -0.584611         0.246171
 C         1.330918         0.015241         0.118823
 C         2.061329         0.791556         1.202087
 C         3.250367         1.207809         0.363141
 O         4.481345         1.347855         1.058888
 C         2.573318         2.110142        -0.648945
 C         1.928821         0.849121        -1.204489
 C         3.167327        -0.004855        -0.711027
 O         2.414402        -1.022511        -0.123026
 H         0.074878        -1.551319         0.511750
 H        -0.565494         0.155578         0.800759
 H        -0.578012        -0.616235        -0.727589
 H         1.512136         1.677964         1.703068
 H         2.257343        -0.073434         1.979209
 H         4.956603         2.257604         0.847994
 H         1.990637         2.999735        -0.347037
 H         3.162696         2.394670        -1.519939
 H         1.389960         0.943880        -2.126168
 H         4.149569        -0.259554        -1.287615
