19
Iteration:  4061
 C         0.005399        -0.516593         0.267707
 C         1.386643        -0.016406         0.112742
 C         2.067563         0.822046         1.169436
 C         3.256100         1.139399         0.395152
 O         4.517870         1.453858         1.035053
 C         2.511500         2.148292        -0.563697
 C         1.935156         0.824674        -1.165122
 C         3.136561         0.011549        -0.777184
 O         2.412511        -1.095645        -0.212671
 H        -0.448321        -0.510494         1.395065
 H        -0.615175         0.069860        -0.535285
 H        -0.028302        -1.484236        -0.186331
 H         1.421614         1.676788         1.553603
 H         2.136906         0.329865         2.043914
 H         4.830196         0.594595         1.443527
 H         1.843082         2.935209        -0.114674
 H         3.201120         2.525494        -1.336973
 H         1.277916         1.127689        -2.025667
 H         3.872663        -0.197936        -1.474552
