19
Iteration:  3471charge 0 multiplicity 1
 C        -0.118742        -0.488949         0.151144
 C         1.385031        -0.065012         0.043973
 C         2.058459         0.732155         1.271638
 C         3.293405         1.149125         0.336565
 O         4.563145         1.533354         0.928409
 C         2.525756         2.113701        -0.474816
 C         1.974338         0.873425        -1.084919
 C         3.144353        -0.052892        -0.757047
 O         2.408118        -1.122802        -0.189260
 H        -0.234281        -1.506775         0.474633
 H        -0.543836        -0.042956         1.082559
 H        -0.533563        -0.352958        -0.805691
 H         1.499864         1.652343         1.489634
 H         2.309081         0.207460         2.319068
 H         4.344323         1.921401         1.741751
 H         1.914166         2.891151        -0.043525
 H         3.168119         2.482454        -1.279476
 H         1.358424         1.042591        -2.083430
 H         3.993293        -0.254467        -1.377791
