19
Iteration:  3186charge 0 multiplicity 1
 C        -0.013211        -0.445906         0.201956
 C         1.391742        -0.041937         0.101289
 C         2.155429         0.662801         1.283437
 C         3.270012         1.157654         0.380083
 O         4.559075         1.494733         1.011191
 C         2.461371         2.108276        -0.562698
 C         1.895498         0.869035        -1.148783
 C         3.119092        -0.004411        -0.776450
 O         2.379460        -1.101272        -0.296357
 H        -0.324481        -0.762261         1.157672
 H        -0.592312         0.490878         0.168392
 H        -0.173096        -1.199225        -0.469099
 H         1.554877         1.372753         1.904282
 H         2.335695        -0.237121         2.036079
 H         4.311311         1.892163         1.806996
 H         1.837460         2.855048        -0.095224
 H         3.180512         2.666557        -1.155450
 H         1.375315         0.988345        -2.113691
 H         4.083256        -0.279411        -1.244470
