19
Iteration:   130charge 0 multiplicity 1
 C        -0.128157        -0.412978         0.257712
 C         1.352994         0.008304         0.039183
 C         1.943791         0.720655         1.238303
 C         3.279198         1.120994         0.382148
 O         4.355329         1.416479         1.110295
 C         2.864503         2.159878        -0.761367
 C         2.075199         0.887845        -1.193253
 C         3.212095        -0.045140        -0.676386
 O         2.290136        -1.038015        -0.183777
 H        -0.216735        -1.266070         0.934513
 H        -0.618899         0.413693         0.770458
 H        -0.689570        -0.859349        -0.678872
 H         1.473733         1.604900         1.628156
 H         2.275840         0.108866         2.057278
 H         4.520488         0.508106         1.611795
 H         2.314835         3.080876        -0.450379
 H         3.643183         2.321499        -1.540027
 H         1.638658         0.844760        -2.157442
 H         4.089556        -0.328819        -1.246336
