19
Iteration:  3254charge 0 multiplicity 1
 C         0.008944        -0.601836         0.256013
 C         1.376707         0.015949         0.124171
 C         2.003925         0.773566         1.236035
 C         3.301115         1.191645         0.321254
 O         4.491599         1.505894         1.040700
 C         2.638183         2.092837        -0.567628
 C         1.915321         0.909349        -1.122961
 C         3.099252         0.020407        -0.764928
 O         2.359970        -1.086584        -0.258057
 H        -0.035995        -1.600611         0.554607
 H        -0.469416         0.099955         0.972427
 H        -0.304199        -0.663971        -0.717834
 H         1.475651         1.793912         1.594358
 H         2.211547         0.151977         2.145928
 H         4.864595         0.561129         1.349314
 H         1.935785         2.856841        -0.213396
 H         3.277510         2.673738        -1.264267
 H         1.346667         0.548705        -2.074842
 H         3.909993        -0.193027        -1.464357
