19
Iteration:  1677charge 0 multiplicity 1
 C        -0.058294        -0.438933         0.302083
 C         1.341558        -0.012780         0.042869
 C         1.975648         0.688388         1.257612
 C         3.252781         1.204944         0.427594
 O         4.441090         1.486801         1.075989
 C         2.718821         2.158551        -0.675658
 C         1.939726         0.855549        -1.159224
 C         3.209697         0.016860        -0.716229
 O         2.346240        -1.132413        -0.277496
 H         0.209810        -1.439462         0.733103
 H        -0.698767         0.364522         0.747518
 H        -0.605410        -0.626986        -0.732173
 H         1.363599         1.488799         1.820720
 H         2.193176        -0.042062         1.951414
 H         4.856904         0.678022         1.620421
 H         2.286454         3.159454        -0.351224
 H         3.437468         2.321609        -1.537686
 H         1.623225         0.751153        -2.252762
 H         4.130568        -0.237902        -1.334335
