19
Iteration:  1644charge 0 multiplicity 1
 C        -0.106159        -0.458768         0.208819
 C         1.352581         0.031876         0.060498
 C         2.024317         0.733042         1.274122
 C         3.322768         1.132856         0.404067
 O         4.458867         1.518947         1.070191
 C         2.652106         2.154673        -0.586800
 C         1.995884         0.818235        -1.226658
 C         3.176789        -0.041586        -0.776425
 O         2.322957        -1.065020        -0.188605
 H        -0.095217        -1.526153         0.614809
 H        -0.777305         0.086210         0.900815
 H        -0.415745        -0.561877        -0.898327
 H         1.584374         1.591004         1.889377
 H         2.301010         0.012408         1.985671
 H         4.767717         0.686502         1.419796
 H         2.019057         2.946979        -0.093853
 H         3.350051         2.579938        -1.366719
 H         1.626204         0.679255        -2.302909
 H         4.067307        -0.438710        -1.355704
