19
Iteration:  4052
 C        -0.000027        -0.549133         0.239462
 C         1.379264        -0.052551         0.081859
 C         2.056827         0.789376         1.268320
 C         3.288055         1.214320         0.379790
 O         4.477487         1.424062         1.020119
 C         2.582517         2.159954        -0.601166
 C         1.856251         0.869260        -1.139443
 C         3.174411         0.057687        -0.787316
 O         2.379682        -1.088360        -0.171251
 H        -0.497827        -0.610199         1.236892
 H        -0.782780         0.088262        -0.251693
 H         0.031196        -1.558382        -0.191595
 H         1.458158         1.742187         1.390472
 H         2.142495         0.174000         2.185231
 H         4.918669         0.554206         1.143572
 H         2.114646         3.041838        -0.106239
 H         3.213221         2.558840        -1.408420
 H         1.563051         0.682669        -2.200652
 H         4.035694        -0.154292        -1.484844
