19
Iteration:  4703charge 0 multiplicity 1
 C        -0.069330        -0.518884         0.220966
 C         1.408731        -0.030261         0.114075
 C         2.002678         0.749218         1.310741
 C         3.257347         1.184101         0.377450
 O         4.566492         1.251162         0.889706
 C         2.527912         2.156121        -0.603752
 C         1.915906         0.880220        -1.103366
 C         3.185579         0.102875        -0.750620
 O         2.432186        -1.051029        -0.224755
 H        -0.666818         0.411906         0.137708
 H        -0.339851        -1.307692        -0.493693
 H        -0.287436        -0.682115         1.199479
 H         1.402568         1.574547         1.776678
 H         2.491483         0.205805         2.123986
 H         4.601562         1.820831         1.759779
 H         1.861693         2.776816         0.017145
 H         2.984468         2.639855        -1.484226
 H         1.158133         0.955828        -1.915070
 H         4.037106        -0.135539        -1.367108
