19
Iteration:  2864
 C        -0.097913        -0.465057         0.219524
 C         1.409735        -0.066138         0.086518
 C         2.055822         0.641031         1.263556
 C         3.269379         1.143370         0.443306
 O         4.550377         1.556681         0.962398
 C         2.605313         2.106684        -0.601216
 C         1.891863         0.900058        -1.107250
 C         3.102309         0.095163        -0.734374
 O         2.402749        -1.163480        -0.292550
 H        -0.230639        -1.488001         0.616625
 H        -0.605335         0.244809         0.893240
 H        -0.646918        -0.286477        -0.760791
 H         1.557735         1.360476         1.839972
 H         2.377071        -0.176491         2.079347
 H         4.493715         1.348871         1.937251
 H         2.127850         3.053098        -0.354119
 H         3.383341         2.466105        -1.273251
 H         1.432399         0.674534        -2.049234
 H         3.985146         0.003884        -1.306582
