19
Iteration:  2504
 C        -0.028425        -0.503017         0.267203
 C         1.363723         0.003172         0.116290
 C         2.053967         0.709870         1.231553
 C         3.326932         1.151878         0.383464
 O         4.480705         1.540505         1.076498
 C         2.636119         2.118710        -0.552119
 C         1.948568         0.859229        -1.110330
 C         3.112818        -0.012696        -0.875215
 O         2.362239        -1.100845        -0.332639
 H        -0.213859        -1.172304         1.158943
 H        -0.515364         0.352795         0.671733
 H        -0.466607        -0.983714        -0.635003
 H         1.586881         1.768376         1.458354
 H         2.127369         0.083633         2.165581
 H         4.455404         1.002348         1.903403
 H         1.826649         2.758747        -0.136791
 H         3.356637         2.600533        -1.283643
 H         1.347284         0.650189        -2.039666
 H         4.007493        -0.264019        -1.513783
