19
Iteration:  1403charge 0 multiplicity 1
 C        -0.099567        -0.430628         0.266947
 C         1.375484        -0.019312         0.015526
 C         2.045815         0.765877         1.216056
 C         3.289928         1.100747         0.412096
 O         4.482109         1.586741         1.127818
 C         2.685061         2.118497        -0.561527
 C         1.996207         0.845698        -1.142383
 C         3.135418        -0.066044        -0.840954
 O         2.309859        -1.167426        -0.287786
 H        -0.015703        -1.076305         1.143586
 H        -0.624511         0.432402         0.461923
 H        -0.491532        -0.881531        -0.594840
 H         1.563721         1.845813         1.424703
 H         2.019507         0.168033         2.093117
 H         4.584745         0.902625         1.839842
 H         2.184876         3.002589        -0.248893
 H         3.501691         2.452482        -1.173402
 H         1.533414         0.856625        -2.095572
 H         3.890345        -0.436493        -1.494888
