19
Iteration:  3422
 C        -0.033832        -0.640262         0.239854
 C         1.385463         0.028537         0.079266
 C         2.095943         0.671867         1.268389
 C         3.235153         1.180361         0.423771
 O         4.466555         1.319269         0.995028
 C         2.599049         2.226928        -0.696094
 C         1.912109         0.953842        -1.201906
 C         3.109843         0.087571        -0.705854
 O         2.388633        -1.064141        -0.191736
 H        -0.083715        -1.383710         1.074739
 H        -0.705693         0.113404         0.644035
 H        -0.266529        -1.113368        -0.754930
 H         1.643643         1.607061         1.879153
 H         2.418754        -0.105972         1.965402
 H         4.732849         2.195113         1.478033
 H         1.995533         3.062841        -0.246046
 H         3.455661         2.653353        -1.247105
 H         1.419055         0.727716        -2.066453
 H         4.018434        -0.195844        -1.284559
