19
Iteration:  4788charge 0 multiplicity 1
 C        -0.075382        -0.417970         0.345561
 C         1.384959        -0.042334         0.107135
 C         2.109040         0.671600         1.216978
 C         3.273699         1.139337         0.385676
 O         4.480988         1.414435         1.063360
 C         2.531474         2.128394        -0.580814
 C         1.908008         0.848409        -1.174669
 C         3.187213        -0.018967        -0.801438
 O         2.418595        -1.066617        -0.282746
 H        -0.572437         0.542026         0.741992
 H        -0.637454        -0.547364        -0.623186
 H        -0.320956        -1.338287         0.900650
 H         1.603415         1.588020         1.529398
 H         2.412691         0.004401         2.087066
 H         4.748330         2.261744         0.838147
 H         1.975662         2.935217        -0.067953
 H         3.264357         2.593066        -1.311856
 H         1.200362         0.782356        -2.051215
 H         4.067203        -0.344179        -1.325185
