19
Iteration:   594
 C        -0.125474        -0.464023         0.114659
 C         1.341465         0.026782         0.075297
 C         1.945418         0.775565         1.288230
 C         3.282243         1.120100         0.381070
 O         4.579826         1.347982         1.031143
 C         2.663053         2.163530        -0.586601
 C         2.013002         0.844293        -1.160773
 C         3.206526        -0.022809        -0.658539
 O         2.330938        -1.087860        -0.218530
 H        -0.433669        -0.822757         1.154289
 H        -0.718933         0.421490        -0.101565
 H        -0.299662        -1.237647        -0.630130
 H         1.488900         1.889722         1.224412
 H         1.961540         0.375550         2.340394
 H         4.458666         1.817499         1.836667
 H         2.063195         3.019108        -0.309778
 H         3.450258         2.343303        -1.314224
 H         1.449435         0.861880        -2.164607
 H         4.057909        -0.407440        -1.288297
