19
Iteration:  2178charge 0 multiplicity 1
 C        -0.029391        -0.491142         0.170483
 C         1.359573        -0.018181         0.095078
 C         2.089804         0.629175         1.301735
 C         3.253294         1.197322         0.402491
 O         4.539239         1.482469         1.002680
 C         2.610389         2.182005        -0.644533
 C         1.946516         0.850588        -1.168162
 C         3.136492         0.082861        -0.722866
 O         2.296691        -1.100358        -0.183304
 H        -0.366507        -0.861750         1.126024
 H        -0.700002         0.302715         0.096443
 H        -0.112191        -1.277274        -0.589749
 H         1.585034         1.296961         1.903310
 H         2.438208        -0.314895         1.636447
 H         4.466112         0.952837         1.866178
 H         1.956760         3.018822        -0.320688
 H         3.329621         2.521915        -1.387743
 H         1.539961         0.662578        -2.154938
 H         4.046595         0.151256        -1.307671
