19
Iteration:  4326charge 0 multiplicity 1
 C        -0.044523        -0.544756         0.215346
 C         1.341199         0.024869         0.083044
 C         2.104092         0.708122         1.317485
 C         3.251114         1.165676         0.390955
 O         4.532756         1.459901         0.940888
 C         2.705783         2.189888        -0.613975
 C         1.891299         0.832391        -1.137450
 C         3.108652         0.056213        -0.701246
 O         2.317230        -1.078843        -0.241942
 H        -0.343365        -0.843711         1.195413
 H        -0.909148        -0.083850        -0.280423
 H         0.085701        -1.608098        -0.227576
 H         1.587930         1.538212         1.840242
 H         2.450825        -0.059856         2.006721
 H         4.246194         1.690797         1.788399
 H         2.210559         3.096541        -0.232271
 H         3.430598         2.254113        -1.403523
 H         1.294177         0.711918        -1.962265
 H         4.014957        -0.223523        -1.374584
