19
Iteration:  4300
 C        -0.053240        -0.430698         0.222553
 C         1.398626        -0.014848         0.097817
 C         2.119862         0.665415         1.262595
 C         3.285926         1.159307         0.408238
 O         4.543270         1.517836         0.977530
 C         2.569843         2.172545        -0.599851
 C         1.907570         0.802865        -1.183614
 C         3.159427         0.001904        -0.759284
 O         2.350064        -1.104301        -0.184215
 H        -0.539014        -0.979210         1.075837
 H        -0.683290         0.466956        -0.040066
 H        -0.286285        -1.076269        -0.587877
 H         1.573714         1.507905         1.856358
 H         2.390307        -0.161785         1.960130
 H         4.330311         1.525708         1.900799
 H         1.820116         2.761461        -0.059582
 H         3.155564         2.575193        -1.446222
 H         1.278928         0.586864        -2.174739
 H         3.977781        -0.345187        -1.372885
