19
Iteration:   810
 C        -0.116028        -0.310180         0.211118
 C         1.397276        -0.009361         0.063436
 C         2.040500         0.716823         1.137444
 C         3.300664         1.146365         0.402057
 O         4.429552         1.426681         1.080172
 C         2.648165         2.100961        -0.601595
 C         1.966985         0.823881        -1.142290
 C         3.242031        -0.060908        -0.740014
 O         2.365262        -1.157988        -0.198210
 H        -0.551766        -0.555156         1.276711
 H        -0.506874         0.706492        -0.087773
 H        -0.393844        -1.125752        -0.449393
 H         1.466727         1.525794         1.449058
 H         2.141437         0.147568         2.010114
 H         4.185594         1.940467         1.824324
 H         2.117611         2.967138        -0.105256
 H         3.441899         2.468391        -1.306432
 H         1.543701         0.828289        -2.124048
 H         4.046211        -0.351295        -1.373047
