19
Iteration:  4088
 C        -0.095947        -0.449439         0.276209
 C         1.365630        -0.027102         0.050613
 C         2.149815         0.636687         1.265823
 C         3.264721         1.139446         0.383022
 O         4.480824         1.537409         0.976747
 C         2.586169         2.181044        -0.610612
 C         1.936866         0.781233        -1.167530
 C         3.195824         0.063150        -0.725808
 O         2.331032        -1.079325        -0.222320
 H        -0.347877        -0.381052         1.249580
 H        -0.680623         0.009955        -0.451982
 H        -0.146706        -1.540210        -0.026686
 H         1.624041         1.376680         1.823058
 H         2.317226        -0.236794         2.090483
 H         4.432780         1.209231         1.931634
 H         2.125315         3.008310        -0.076091
 H         3.263467         2.472907        -1.421937
 H         1.544778         0.827033        -2.146222
 H         3.999540        -0.216576        -1.519979
