19
Iteration:   220charge 0 multiplicity 1
 C        -0.139032        -0.298913         0.116745
 C         1.332347        -0.056365         0.041853
 C         1.985754         0.683745         1.265941
 C         3.256071         1.085837         0.466108
 O         4.558449         1.392407         1.093524
 C         2.664970         2.141581        -0.645904
 C         1.991510         0.886189        -1.138842
 C         3.224925        -0.056217        -0.635895
 O         2.336826        -1.105136        -0.233148
 H        -0.564344        -0.559326         1.062886
 H        -0.608005         0.632975        -0.281405
 H        -0.198305        -1.116035        -0.614404
 H         1.345509         1.479036         1.483199
 H         2.132661         0.084196         2.115514
 H         4.889033         2.342374         0.917296
 H         1.993338         2.968966        -0.384493
 H         3.389427         2.364460        -1.424641
 H         1.336169         0.812169        -2.062132
 H         4.123462        -0.492893        -1.021386
