19
Iteration:  3163charge 0 multiplicity 1
 C        -0.103725        -0.417402         0.208982
 C         1.393492        -0.094783         0.052938
 C         2.118223         0.624682         1.196211
 C         3.270801         1.156210         0.424790
 O         4.501970         1.451217         0.947868
 C         2.547020         2.150708        -0.517395
 C         1.906244         0.821425        -0.997366
 C         3.188149         0.074512        -0.781042
 O         2.445759        -1.113768        -0.301501
 H        -0.456945        -0.614529         1.214070
 H        -0.610756         0.547520         0.153980
 H        -0.428858        -1.254018        -0.355303
 H         1.497110         1.448984         1.505308
 H         2.283455         0.065801         2.253808
 H         4.353683         2.252125         1.595240
 H         1.861930         2.807465        -0.013879
 H         3.164629         2.761772        -1.145828
 H         1.331729         0.697177        -1.876827
 H         3.966737        -0.152720        -1.538568
