19
Iteration:  4255
 C        -0.058691        -0.376540         0.244333
 C         1.386516        -0.078159         0.155816
 C         2.074090         0.627024         1.285850
 C         3.220753         1.191427         0.358409
 O         4.468321         1.594121         0.969613
 C         2.602962         2.144825        -0.658594
 C         1.967992         0.794700        -1.206391
 C         3.173101        -0.004961        -0.718678
 O         2.351958        -1.113494        -0.214357
 H        -0.184777        -1.437079         0.606114
 H        -0.483286         0.341992         0.966867
 H        -0.635560        -0.365009        -0.662594
 H         1.443027         1.403560         1.807363
 H         2.495478        -0.121712         2.057951
 H         4.699426         0.957954         1.597546
 H         1.975711         2.872291        -0.192965
 H         3.510936         2.478109        -1.159245
 H         1.542460         0.574054        -2.282895
 H         4.068054        -0.214314        -1.168737
