19
Iteration:  1868charge 0 multiplicity 1
 C        -0.062974        -0.512113         0.110400
 C         1.372581         0.025032         0.021900
 C         2.135114         0.743330         1.325097
 C         3.262114         1.221849         0.378886
 O         4.545077         1.439468         1.018932
 C         2.564846         2.107787        -0.641174
 C         1.958213         0.834422        -1.164829
 C         3.158701         0.000234        -0.676654
 O         2.295192        -1.056020        -0.153744
 H         0.016063        -1.568815         0.555373
 H        -0.736633         0.221564         0.648352
 H        -0.507077        -0.680090        -0.880435
 H         1.608396         1.484806         1.815349
 H         2.582600         0.058895         2.078104
 H         4.457764         1.106328         1.868071
 H         1.919212         2.839531        -0.075525
 H         3.085074         2.718910        -1.419007
 H         1.449000         0.794705        -2.123310
 H         3.979123        -0.399865        -1.366102
