19
Iteration:  3536charge 0 multiplicity 1
 C        -0.034919        -0.530151         0.280533
 C         1.328940        -0.029873         0.136711
 C         2.083251         0.687417         1.181291
 C         3.329410         1.116352         0.341849
 O         4.478175         1.544819         1.033136
 C         2.625014         2.104873        -0.575276
 C         1.942274         0.914246        -1.143587
 C         3.097771         0.023148        -0.796880
 O         2.396635        -1.122839        -0.262456
 H        -0.163394        -1.222948         1.134079
 H        -0.659652         0.350642         0.498289
 H        -0.418441        -1.114848        -0.501720
 H         1.517668         1.649277         1.450380
 H         2.297887         0.219031         2.300959
 H         4.205186         1.486714         1.971737
 H         2.103063         2.935480        -0.104673
 H         3.312699         2.593893        -1.285788
 H         1.456223         0.879691        -2.196192
 H         3.854834        -0.209524        -1.512269
