19
Iteration:  3231charge 0 multiplicity 1
 C        -0.050363        -0.597795         0.212128
 C         1.355544        -0.035911         0.056771
 C         2.075865         0.746885         1.249096
 C         3.276042         1.158139         0.418083
 O         4.528822         1.495111         0.976649
 C         2.646913         2.124938        -0.571501
 C         1.856398         0.941407        -1.117354
 C         3.119572        -0.001961        -0.737829
 O         2.387159        -1.075488        -0.252199
 H        -0.074083        -1.459217         0.795658
 H        -0.583577         0.174297         0.835060
 H        -0.347429        -0.889335        -0.709606
 H         1.390279         1.627943         1.575749
 H         2.311221         0.126659         2.204733
 H         4.814712         1.244678         1.797494
 H         2.071552         2.994756        -0.265455
 H         3.288450         2.515830        -1.384431
 H         1.091998         0.909615        -1.989300
 H         3.982970        -0.232531        -1.381210
