19
Iteration:  1367charge 0 multiplicity 1
 C        -0.059706        -0.401605         0.157666
 C         1.346688         0.047924         0.030561
 C         2.104117         0.675215         1.266146
 C         3.225242         1.163064         0.468798
 O         4.451184         1.472215         1.062887
 C         2.647232         2.174735        -0.673270
 C         1.986307         0.862843        -1.142172
 C         3.198767         0.015071        -0.742083
 O         2.290143        -1.140781        -0.184040
 H        -0.242706        -0.675730         1.191931
 H        -0.830809         0.322198         0.005142
 H        -0.229450        -1.275003        -0.345395
 H         1.600708         1.432696         1.950852
 H         2.436228        -0.259895         1.879093
 H         4.774282         0.566499         1.326855
 H         2.080025         3.054736        -0.418455
 H         3.475973         2.409669        -1.335447
 H         1.541930         0.655443        -2.149694
 H         4.102322        -0.219711        -1.364077
