19
Iteration:  3579charge 0 multiplicity 1
 C        -0.096902        -0.597882         0.251900
 C         1.383234        -0.005722         0.096998
 C         2.102552         0.689190         1.353787
 C         3.237842         1.176433         0.386247
 O         4.473595         1.456940         0.975564
 C         2.608280         2.226139        -0.668053
 C         1.940846         0.912377        -1.196425
 C         3.170883         0.069900        -0.694596
 O         2.340788        -1.056731        -0.188558
 H        -0.338174        -1.048504         1.245674
 H        -0.801988         0.010388        -0.339435
 H        -0.027639        -1.536965        -0.268825
 H         1.554805         1.492808         1.944189
 H         2.334006        -0.229434         2.022405
 H         4.898818         0.671563         1.155875
 H         2.007579         3.121065        -0.449670
 H         3.418900         2.582240        -1.354066
 H         1.767757         0.770815        -2.332718
 H         3.949179        -0.118608        -1.381548
