19
Iteration:  3632
 C        -0.047837        -0.415093         0.123714
 C         1.434671        -0.053563         0.138931
 C         2.149247         0.739594         1.293793
 C         3.287591         1.181649         0.371330
 O         4.463239         1.500664         1.083822
 C         2.512317         2.117502        -0.591901
 C         1.913323         0.793864        -1.120709
 C         3.160010        -0.074005        -0.746136
 O         2.377631        -1.125628        -0.249476
 H        -0.371334        -0.830459         1.193506
 H        -0.696599         0.465212         0.310987
 H        -0.482081        -1.130078        -0.647000
 H         1.529196         1.601533         1.643750
 H         2.429302         0.186474         2.089155
 H         4.899389         2.020589         0.473438
 H         1.738074         2.812212        -0.185925
 H         3.168379         2.676908        -1.324466
 H         1.290985         0.730429        -2.053417
 H         4.091664        -0.267189        -1.284668
