19
Iteration:   177
 C        -0.103313        -0.396678        -0.073898
 C         1.343525         0.056757         0.147672
 C         2.086634         0.752426         1.272155
 C         3.320283         1.135960         0.371360
 O         4.543031         1.345409         0.976466
 C         2.615250         2.119487        -0.598273
 C         2.033232         0.901005        -1.111097
 C         3.163906        -0.120105        -0.637430
 O         2.265454        -1.078523        -0.086035
 H        -0.462110        -1.155882         0.561804
 H        -0.697251         0.519938         0.104636
 H        -0.221507        -0.793468        -0.986948
 H         1.589672         1.649362         1.585790
 H         2.243151         0.099691         2.112905
 H         4.260383         1.974095         1.643059
 H         1.946233         2.844825        -0.149240
 H         3.353842         2.565528        -1.240688
 H         1.438686         0.960123        -2.086018
 H         4.061850        -0.575380        -1.046061
