19
Iteration:  4040
 C        -0.074895        -0.630080         0.197033
 C         1.378344         0.017492         0.120862
 C         2.011341         0.733391         1.246275
 C         3.261933         1.159096         0.344740
 O         4.498402         1.439872         1.009526
 C         2.667070         2.182343        -0.671907
 C         1.907537         0.862789        -1.099567
 C         3.109364         0.080880        -0.673871
 O         2.404654        -1.013824        -0.190838
 H        -0.031590        -0.756503         1.329601
 H        -0.786550         0.118585        -0.295660
 H        -0.257355        -1.568158        -0.281857
 H         1.438494         1.575414         1.790591
 H         2.421496         0.149741         2.010816
 H         4.963475         0.645974         0.965372
 H         1.987332         2.992234        -0.318316
 H         3.412090         2.484052        -1.423107
 H         1.275020         0.645514        -1.993060
 H         3.958560        -0.212765        -1.255436
