19
Iteration:  1120
 C        -0.058912        -0.354213         0.260594
 C         1.384518        -0.000907         0.080583
 C         1.998921         0.808191         1.220315
 C         3.324743         1.100469         0.341987
 O         4.416836         1.574653         1.161573
 C         2.722775         2.090798        -0.565289
 C         1.996571         0.771525        -1.277474
 C         3.228118        -0.117534        -0.786449
 O         2.279920        -1.142914        -0.266449
 H        -0.255590        -1.065445         1.091753
 H        -0.652794         0.509497         0.441686
 H        -0.587930        -0.622932        -0.639174
 H         1.417241         1.817020         1.513469
 H         2.212031         0.132285         2.158843
 H         4.605633         0.913203         1.748279
 H         1.945353         2.715322        -0.076441
 H         3.501336         2.515930        -1.243163
 H         1.321056         0.710729        -2.107521
 H         4.145026        -0.359894        -1.316399
