19
Iteration:  3547charge 0 multiplicity 1
 C        -0.037819        -0.595877         0.274125
 C         1.384746        -0.027715         0.052898
 C         2.083339         0.816949         1.235378
 C         3.327399         1.096417         0.377795
 O         4.491324         1.539096         1.021122
 C         2.624151         2.130067        -0.538350
 C         1.817668         0.913321        -1.135000
 C         3.187380        -0.025754        -0.804948
 O         2.350334        -1.111948        -0.267473
 H         0.005684        -0.933357         1.320030
 H        -0.812145         0.214319         0.220179
 H        -0.262916        -1.236492        -0.517050
 H         1.539852         1.813183         1.428499
 H         2.114109        -0.022228         2.193154
 H         4.496877         1.335426         2.067577
 H         2.137882         2.961590        -0.034835
 H         3.315615         2.380273        -1.357868
 H         1.392753         1.037732        -2.227985
 H         3.924375        -0.320045        -1.510527
