19
Iteration:  1827charge 0 multiplicity 1
 C        -0.062159        -0.499167         0.210592
 C         1.335415        -0.050515         0.004364
 C         2.004914         0.667040         1.269017
 C         3.271892         1.191666         0.474773
 O         4.474485         1.555678         1.023674
 C         2.771577         2.124896        -0.658708
 C         1.914694         0.864092        -1.135883
 C         3.097158        -0.001044        -0.718217
 O         2.359133        -1.068110        -0.226305
 H        -0.148011        -1.374656         0.815826
 H        -0.366285         0.206959         0.895025
 H        -0.666365        -0.622777        -0.656562
 H         1.451371         1.551169         1.571002
 H         2.228607        -0.181191         2.128551
 H         4.772287         0.773486         1.615203
 H         2.302233         3.072350        -0.424471
 H         3.499323         2.409166        -1.399395
 H         1.440233         0.803020        -2.207112
 H         4.102327        -0.241795        -1.260680
