19
Iteration:  4508charge 0 multiplicity 1
 C        -0.011664        -0.599654         0.307786
 C         1.373642         0.064268         0.051983
 C         2.060341         0.717215         1.232232
 C         3.361819         1.102964         0.402495
 O         4.512094         1.477980         1.045359
 C         2.588366         2.169530        -0.580792
 C         1.852138         0.922069        -1.105848
 C         3.145002         0.026097        -0.789751
 O         2.332480        -1.033388        -0.304046
 H        -0.715532         0.098004        -0.240910
 H        -0.110653        -1.644077        -0.055915
 H        -0.143584        -0.591079         1.395187
 H         1.544230         1.578228         1.675528
 H         2.224112         0.003889         1.996483
 H         4.800819         0.511558         1.376358
 H         1.897962         3.000111        -0.273904
 H         3.392512         2.470341        -1.274770
 H         1.163754         0.818400        -2.076202
 H         3.957406        -0.424851        -1.414612
