19
Iteration:  2038charge 0 multiplicity 1
 C        -0.062255        -0.478968         0.146117
 C         1.350487        -0.021858         0.105397
 C         2.028982         0.653778         1.306460
 C         3.288193         1.143303         0.438248
 O         4.517711         1.511913         0.995894
 C         2.629472         2.110660        -0.645119
 C         1.933642         0.864574        -1.141011
 C         3.162344         0.010123        -0.723526
 O         2.335923        -1.023468        -0.215889
 H         0.023227        -1.490514         0.559621
 H        -0.716681        -0.007721         0.964378
 H        -0.449770        -0.586537        -0.882864
 H         1.428228         1.497880         1.604281
 H         2.551760        -0.118539         1.997534
 H         4.455385         1.346987         1.882007
 H         2.119115         3.092183        -0.435744
 H         3.371031         2.267287        -1.451778
 H         1.508530         0.783432        -2.111732
 H         4.038458        -0.219677        -1.256827
