19
Iteration:  4417charge 0 multiplicity 1
 C        -0.095480        -0.449868         0.189697
 C         1.382850        -0.024738         0.121022
 C         2.110438         0.660790         1.244405
 C         3.327169         1.144509         0.358790
 O         4.543198         1.512805         0.933588
 C         2.619764         2.124281        -0.494887
 C         1.919786         0.927392        -1.064417
 C         3.108270        -0.012064        -0.713294
 O         2.349438        -1.124244        -0.280963
 H        -0.769843         0.133463         0.933761
 H        -0.616696        -0.522942        -0.798077
 H        -0.161255        -1.511506         0.478508
 H         1.533838         1.390438         1.697734
 H         2.438367        -0.075038         2.002255
 H         4.311626         2.025609         1.766291
 H         1.866294         2.822293        -0.171767
 H         3.196053         2.336274        -1.425869
 H         1.495427         0.642004        -2.075407
 H         3.916724        -0.147143        -1.360624
