19
Iteration:  3618charge 0 multiplicity 1
 C        -0.022541        -0.422190         0.178170
 C         1.390876        -0.073471         0.102772
 C         2.049571         0.744503         1.267689
 C         3.309081         1.112002         0.418537
 O         4.502611         1.502673         1.054074
 C         2.465917         2.165734        -0.596233
 C         1.919377         0.821108        -1.082998
 C         3.157463         0.038080        -0.777013
 O         2.391953        -1.154391        -0.195802
 H        -0.345957        -0.860325         1.214102
 H        -0.468916         0.427640        -0.369801
 H        -0.141761        -1.202797        -0.708671
 H         1.553635         1.707816         1.495529
 H         2.198999         0.134008         2.209201
 H         5.335271         1.534090         0.388846
 H         1.905140         2.905875         0.003453
 H         3.046417         2.626199        -1.410660
 H         1.364321         0.610244        -1.948119
 H         3.960795        -0.334231        -1.537621
