19
Iteration:  1667charge 0 multiplicity 1
 C        -0.035467        -0.446575         0.266584
 C         1.389598         0.048738        -0.018462
 C         2.026287         0.616324         1.275855
 C         3.237991         1.174620         0.420517
 O         4.419921         1.491823         1.064009
 C         2.694609         2.119101        -0.711221
 C         2.005848         0.897590        -1.191299
 C         3.171888         0.056003        -0.650139
 O         2.312586        -1.099096        -0.225050
 H        -0.080217        -1.408710         0.852133
 H        -0.592135         0.125105         1.092731
 H        -0.639045        -0.672454        -0.730745
 H         1.388850         1.448986         1.860983
 H         2.350965        -0.153031         1.955329
 H         4.587125         0.483101         1.323991
 H         2.148009         3.115456        -0.513791
 H         3.538366         2.254259        -1.487146
 H         1.482071         0.809995        -2.173051
 H         4.162756        -0.113357        -1.118531
