19
Iteration:  3751
 C        -0.001438        -0.576335         0.171984
 C         1.373684         0.000651         0.135230
 C         2.060342         0.783997         1.282438
 C         3.281522         1.175494         0.357804
 O         4.483999         1.434752         1.045831
 C         2.555422         2.135228        -0.645324
 C         1.906378         0.872420        -1.097193
 C         3.134488         0.004412        -0.710118
 O         2.377429        -1.079337        -0.186050
 H        -0.316346        -1.143042         1.008708
 H        -0.671463         0.250728         0.323566
 H        -0.107745        -0.987522        -0.876455
 H         1.397124         1.615793         1.792647
 H         2.301188         0.067558         2.060204
 H         5.231047         1.509561         0.326784
 H         1.910446         2.996588        -0.405350
 H         3.239983         2.367457        -1.497364
 H         1.361346         0.919895        -2.060454
 H         4.103873        -0.282064        -1.168096
