19
Iteration:  1395charge 0 multiplicity 1
 C        -0.121568        -0.415308         0.284486
 C         1.359882        -0.053458         0.053820
 C         2.013294         0.750993         1.232497
 C         3.303428         1.066226         0.466114
 O         4.459240         1.577295         1.116465
 C         2.749447         2.068074        -0.635079
 C         1.965616         0.901094        -1.183872
 C         3.203680         0.017884        -0.836332
 O         2.312625        -1.165068        -0.278100
 H        -0.155935        -1.035113         1.214467
 H        -0.758151         0.571962         0.293780
 H        -0.679468        -1.158493        -0.501410
 H         1.404637         1.595408         1.477997
 H         2.215203         0.132321         2.092884
 H         4.737626         0.910110         1.713076
 H         2.131358         2.901521        -0.156518
 H         3.523265         2.388862        -1.398732
 H         1.375770         1.006233        -2.120069
 H         4.129960        -0.180373        -1.422600
