19
Iteration:  3573charge 0 multiplicity 1
 C        -0.054338        -0.615845         0.248560
 C         1.364684         0.033561         0.159238
 C         2.070981         0.669916         1.298289
 C         3.249686         1.204867         0.377908
 O         4.498155         1.479472         0.980125
 C         2.628257         2.189321        -0.655645
 C         1.963955         0.895692        -1.188680
 C         3.116369         0.067679        -0.689785
 O         2.320307        -1.054656        -0.228182
 H        -0.130174        -0.935513         1.284726
 H        -0.777285         0.036985        -0.281804
 H        -0.014292        -1.578893        -0.346995
 H         1.488796         1.443974         1.714719
 H         2.357811        -0.138356         2.061077
 H         4.857238         0.611347         1.455268
 H         1.967009         3.019198        -0.375747
 H         3.398785         2.520608        -1.333050
 H         1.672713         0.806666        -2.207207
 H         3.962970        -0.160445        -1.411170
