19
Iteration:  3606charge 0 multiplicity 1
 C        -0.035069        -0.468268         0.142039
 C         1.417494        -0.010847         0.116185
 C         2.043919         0.707293         1.240508
 C         3.301105         1.182939         0.360605
 O         4.515013         1.479501         1.023179
 C         2.530273         2.106114        -0.563320
 C         1.847788         0.832490        -1.102122
 C         3.147273         0.025594        -0.700755
 O         2.423173        -1.073827        -0.172928
 H        -0.472429        -0.684683         1.150657
 H        -0.755528         0.273244        -0.229105
 H        -0.121419        -1.472282        -0.401151
 H         1.364867         1.483387         1.578655
 H         2.247959        -0.046584         2.128333
 H         5.169076         1.092858         0.508373
 H         1.869915         2.886060        -0.165258
 H         3.155571         2.568572        -1.314072
 H         1.492377         0.782849        -2.092750
 H         3.967204        -0.121347        -1.488187
