19
Iteration:  3607
 C        -0.025374        -0.456345         0.145171
 C         1.419133        -0.020125         0.112866
 C         2.041437         0.707817         1.246568
 C         3.310807         1.175096         0.363319
 O         4.512865         1.483073         1.027194
 C         2.521976         2.109486        -0.564646
 C         1.844957         0.834958        -1.099460
 C         3.151473         0.025638        -0.706519
 O         2.419723        -1.082514        -0.172816
 H        -0.531824        -0.677553         1.160683
 H        -0.765329         0.265488        -0.207642
 H        -0.084854        -1.468732        -0.442774
 H         1.350163         1.492507         1.568355
 H         2.210938         0.002700         2.095201
 H         5.203657         1.107509         0.472978
 H         1.858831         2.892663        -0.144594
 H         3.152986         2.575616        -1.334342
 H         1.519308         0.761122        -2.086962
 H         3.954051        -0.122482        -1.520474
