19
Iteration:   578
 C        -0.059532        -0.406261         0.161089
 C         1.349905         0.029943         0.031091
 C         1.998947         0.769256         1.176663
 C         3.284752         1.163402         0.496154
 O         4.493488         1.371082         1.079322
 C         2.782244         2.088181        -0.693403
 C         1.958440         0.862723        -1.114872
 C         3.113083        -0.009592        -0.682913
 O         2.305945        -1.100743        -0.225651
 H        -0.241303        -0.985284         1.079668
 H        -0.881136         0.356272         0.177056
 H        -0.274678        -1.244645        -0.560389
 H         1.344215         1.424654         1.699977
 H         2.242949        -0.021764         1.903189
 H         4.430611         2.021732         1.716735
 H         2.242587         2.995047        -0.300051
 H         3.553407         2.458902        -1.406471
 H         1.587112         0.630428        -2.073233
 H         4.030331        -0.182815        -1.193309
