19
Iteration:   146charge 0 multiplicity 1
 C        -0.153030        -0.421478         0.148719
 C         1.263844         0.083906         0.024309
 C         2.023086         0.839378         1.199367
 C         3.252332         1.147692         0.462066
 O         4.551662         1.392615         1.058776
 C         2.747383         2.044733        -0.644424
 C         1.983555         0.852303        -1.193945
 C         3.144171        -0.013919        -0.639181
 O         2.368890        -1.107611        -0.210617
 H        -0.128736        -1.275643         0.857303
 H        -0.770887         0.323770         0.668284
 H        -0.507607        -0.684172        -0.787117
 H         1.410471         1.715087         1.537196
 H         2.006179         0.093388         2.033649
 H         4.537590         1.040449         2.013385
 H         2.273040         2.988052        -0.385132
 H         3.617394         2.184236        -1.283737
 H         1.528282         0.704456        -2.225992
 H         4.129809        -0.286518        -1.095825
