19
Iteration:  3494
 C        -0.049139        -0.400799         0.218899
 C         1.386786        -0.018176         0.055206
 C         2.141117         0.628765         1.271194
 C         3.237007         1.138970         0.420965
 O         4.513552         1.509732         0.954944
 C         2.536278         2.147170        -0.646133
 C         1.944437         0.788395        -1.146603
 C         3.146542         0.034935        -0.685283
 O         2.382790        -1.071937        -0.221105
 H        -0.138750        -1.413047         0.536323
 H        -0.603821         0.040804         1.090866
 H        -0.425260        -0.338106        -0.762129
 H         1.567786         1.318854         1.823991
 H         2.389301        -0.255234         1.953725
 H         4.345263         1.695852         1.975546
 H         1.706278         2.754741        -0.313418
 H         3.209421         2.693559        -1.302298
 H         1.421560         0.521336        -2.160157
 H         4.034669        -0.098602        -1.260771
