19
Iteration:  3998charge 0 multiplicity 1
 C        -0.012951        -0.523912         0.204601
 C         1.336581         0.021366         0.110850
 C         2.076953         0.765328         1.224096
 C         3.330681         1.146245         0.416727
 O         4.459380         1.599664         0.972518
 C         2.599583         2.095029        -0.611209
 C         1.936082         0.835216        -1.076926
 C         3.163253        -0.088575        -0.731941
 O         2.321843        -1.100749        -0.215915
 H        -0.010056        -1.498756         0.649861
 H        -0.654913         0.363710         0.517451
 H        -0.459599        -0.729516        -0.807193
 H         1.551759         1.756804         1.604019
 H         2.277682        -0.059497         2.072279
 H         4.991220         0.941582         1.415519
 H         1.968278         2.823969        -0.053005
 H         3.207853         2.620865        -1.354157
 H         1.321504         0.887451        -2.007799
 H         4.101534        -0.339633        -1.388039
