19
Iteration:   676charge 0 multiplicity 1
 C        -0.052758        -0.361727         0.228908
 C         1.337608        -0.012143        -0.006011
 C         1.959526         0.748697         1.187643
 C         3.340542         1.075612         0.411014
 O         4.509164         1.488965         1.125888
 C         2.735600         2.091835        -0.647117
 C         1.997080         0.857552        -1.135360
 C         3.194693        -0.121110        -0.663581
 O         2.299040        -1.126454        -0.254859
 H        -0.169263        -1.241685         0.926282
 H        -0.794534         0.448215         0.543395
 H        -0.715726        -0.595005        -0.783172
 H         1.582041         1.724212         1.398907
 H         2.049722         0.062765         2.049203
 H         4.180309         2.184827         1.623058
 H         1.983624         2.788314        -0.146631
 H         3.355076         2.624493        -1.407251
 H         1.426467         1.047323        -2.079178
 H         3.990810        -0.445162        -1.377057
