19
Iteration:  2947
 C        -0.031389        -0.514735         0.213685
 C         1.392509        -0.073748         0.099773
 C         2.047470         0.724586         1.328041
 C         3.289439         1.159247         0.422403
 O         4.498189         1.480562         1.006241
 C         2.614449         2.154330        -0.542183
 C         1.869995         0.936880        -1.150955
 C         3.080637         0.048378        -0.767522
 O         2.447207        -1.097732        -0.313556
 H        -0.362045        -0.893603         1.240768
 H        -0.773192         0.375878        -0.009036
 H        -0.278632        -1.373466        -0.409314
 H         1.327015         1.597579         1.502226
 H         2.193927         0.193877         2.157369
 H         4.856885         0.684276         1.232367
 H         2.040547         2.857091         0.043835
 H         3.298590         2.537198        -1.326170
 H         1.441623         0.721520        -2.133362
 H         3.935379        -0.286121        -1.434069
