19
Iteration:  2445
 C        -0.035269        -0.557309         0.165717
 C         1.376428         0.049142         0.098289
 C         2.057503         0.826692         1.213775
 C         3.291074         1.098200         0.429085
 O         4.546780         1.540933         1.004442
 C         2.539969         2.101739        -0.523455
 C         1.874264         0.883942        -1.105875
 C         3.170038        -0.019588        -0.748903
 O         2.369661        -1.135698        -0.247985
 H        -0.043691        -1.573104         0.515537
 H        -0.690193         0.154930         0.642559
 H        -0.530735        -0.423980        -0.773263
 H         1.642584         1.734935         1.528778
 H         2.060450         0.136486         2.164004
 H         4.973747         0.675468         1.373469
 H         1.902039         2.954012        -0.154755
 H         3.302704         2.594251        -1.186011
 H         1.370306         0.798578        -2.047896
 H         4.022631        -0.371941        -1.321047
