19
Iteration:  1894
 C        -0.081373        -0.461071         0.149888
 C         1.339943         0.012015         0.061029
 C         2.072243         0.630411         1.322082
 C         3.209825         1.100838         0.438010
 O         4.497985         1.497342         0.960120
 C         2.660392         2.132290        -0.659927
 C         1.891745         0.868582        -1.119140
 C         3.108511         0.049053        -0.683446
 O         2.451429        -1.087986        -0.198681
 H        -0.352456        -1.205261         0.838824
 H        -0.578833         0.451797         0.278615
 H        -0.315981        -0.850758        -0.845972
 H         1.620437         1.585299         1.691767
 H         2.372501        -0.099184         2.203983
 H         4.619849         1.289136         1.870156
 H         2.232894         3.065345        -0.336753
 H         3.414734         2.457566        -1.341275
 H         1.357322         0.626426        -2.107624
 H         3.982561        -0.101998        -1.349450
