19
Iteration:  4307charge 0 multiplicity 1
 C        -0.074932        -0.493698         0.177892
 C         1.392988        -0.004059         0.121720
 C         2.168197         0.671933         1.272296
 C         3.279800         1.189306         0.408915
 O         4.494260         1.490304         0.972176
 C         2.565232         2.126926        -0.640376
 C         1.901405         0.904095        -1.129117
 C         3.164659        -0.037530        -0.743548
 O         2.321048        -1.078082        -0.193512
 H        -0.371954        -0.837415         1.181103
 H        -0.544055         0.433343        -0.045802
 H        -0.283403        -1.376459        -0.503895
 H         1.663671         1.438009         1.723895
 H         2.512905        -0.140286         1.945480
 H         4.539548         1.596343         1.878120
 H         1.830746         2.856617        -0.261882
 H         3.270893         2.496741        -1.397869
 H         1.505996         0.772195        -2.107305
 H         4.021072        -0.362371        -1.297849
