19
Iteration:   826charge 0 multiplicity 1
 C        -0.021174        -0.287548         0.185833
 C         1.391957        -0.062670        -0.014925
 C         2.054658         0.749005         1.236080
 C         3.306954         1.067684         0.375529
 O         4.456366         1.460778         1.183373
 C         2.664128         2.060971        -0.640382
 C         1.993195         0.801635        -1.213299
 C         3.099717        -0.044741        -0.735012
 O         2.336139        -1.098207        -0.228815
 H        -0.134975        -0.624832         1.279647
 H        -0.567933         0.641701         0.287217
 H        -0.613886        -1.082093        -0.372824
 H         1.526821         1.762215         1.608273
 H         2.416016         0.166501         2.190437
 H         4.073419         2.014698         1.798538
 H         1.969802         2.820522        -0.336177
 H         3.228736         2.642319        -1.337663
 H         1.491303         0.624181        -2.214133
 H         4.020771        -0.434829        -1.316844
