19
Iteration:  1026
 C        -0.141761        -0.406824         0.122300
 C         1.296046         0.015379         0.097461
 C         1.994146         0.766379         1.288919
 C         3.280104         1.114736         0.432307
 O         4.583281         1.392812         0.972525
 C         2.615553         2.128724        -0.654931
 C         1.995936         0.837831        -1.156519
 C         3.167318         0.007182        -0.660976
 O         2.443480        -1.117561        -0.161555
 H        -0.569863        -0.910632         0.952538
 H        -0.699575         0.588750        -0.095927
 H        -0.419820        -0.878789        -0.895030
 H         1.439721         1.639334         1.498559
 H         2.106491         0.149210         2.184296
 H         4.440116         1.515880         1.989486
 H         1.954973         2.916984        -0.398755
 H         3.451514         2.286588        -1.266944
 H         1.422210         0.706327        -2.038596
 H         3.927326        -0.231024        -1.337716
