19
Iteration:   899
 C        -0.068072        -0.455547        -0.022559
 C         1.318486         0.039586         0.138620
 C         2.003376         0.835854         1.255260
 C         3.318028         1.169238         0.329901
 O         4.553869         1.306599         0.986539
 C         2.657918         2.153187        -0.665915
 C         1.968944         0.824788        -1.055592
 C         3.188960        -0.040347        -0.607722
 O         2.305330        -1.068756        -0.097644
 H        -0.129662        -1.492421         0.493255
 H        -0.787148         0.059909         0.564761
 H        -0.317013        -0.727195        -0.969235
 H         1.341629         1.629965         1.345979
 H         2.108469         0.325250         2.143578
 H         4.621248         1.910900         1.689590
 H         2.090779         2.903408        -0.058384
 H         3.218769         2.808307        -1.370333
 H         1.513380         0.585540        -2.002773
 H         3.903964        -0.382171        -1.330749
