19
Iteration:  4995charge 0 multiplicity 1
 C         0.031325        -0.613521         0.259745
 C         1.421966         0.010668         0.098541
 C         2.086683         0.759020         1.263321
 C         3.296307         1.101653         0.381258
 O         4.467330         1.366748         1.045374
 C         2.525168         2.197001        -0.568889
 C         1.826758         0.921032        -1.119512
 C         3.090192         0.084205        -0.777497
 O         2.406667        -1.010446        -0.252714
 H        -0.609496         0.115276         0.827538
 H        -0.538409        -0.825532        -0.684938
 H         0.053092        -1.538692         0.793078
 H         1.637345         1.668916         1.648934
 H         2.461681         0.063176         2.078607
 H         5.137109         0.891652         0.528599
 H         2.164039         3.178761        -0.302532
 H         3.255440         2.382468        -1.445340
 H         1.216281         0.748430        -1.964942
 H         3.854187        -0.148475        -1.411591
