19
Iteration:  1402
 C        -0.110062        -0.428905         0.268278
 C         1.375026        -0.025309         0.020337
 C         2.042529         0.767325         1.217451
 C         3.288226         1.090814         0.421397
 O         4.481312         1.590979         1.124984
 C         2.692689         2.115381        -0.572287
 C         1.993747         0.852809        -1.146909
 C         3.145780        -0.051740        -0.846269
 O         2.309759        -1.171676        -0.285731
 H        -0.012237        -1.077129         1.141362
 H        -0.620667         0.423426         0.412385
 H        -0.502029        -0.884959        -0.529060
 H         1.539601         1.845796         1.425930
 H         2.040801         0.144021         2.113365
 H         4.598384         0.857343         1.856965
 H         2.189829         2.973610        -0.244299
 H         3.495359         2.437564        -1.186791
 H         1.515995         0.887896        -2.089542
 H         3.920632        -0.407166        -1.487531
