19
Iteration:  4719charge 0 multiplicity 1
 C        -0.054050        -0.419363         0.208579
 C         1.353044        -0.016042         0.079620
 C         2.121957         0.663867         1.231211
 C         3.304439         1.151877         0.396998
 O         4.633607         1.403180         0.905263
 C         2.483101         2.178062        -0.511846
 C         1.827312         0.868395        -1.079183
 C         3.128222        -0.008811        -0.719837
 O         2.386484        -1.086045        -0.230177
 H        -0.734662         0.336918        -0.165072
 H        -0.105096        -1.270149        -0.483172
 H        -0.341633        -0.923028         1.223732
 H         1.539150         1.498082         1.573211
 H         2.074883        -0.085652         2.025886
 H         4.635890         2.137312         1.531354
 H         1.842586         2.958691        -0.060357
 H         3.288072         2.535066        -1.173020
 H         1.406189         0.714997        -2.062820
 H         4.069767        -0.243227        -1.293150
