19
Iteration:  2201charge 0 multiplicity 1
 C        -0.074470        -0.432248         0.236681
 C         1.358338        -0.064850         0.071339
 C         2.088206         0.717778         1.241369
 C         3.293240         1.098509         0.407517
 O         4.441547         1.579865         1.054244
 C         2.615453         2.115565        -0.550828
 C         1.954779         0.860665        -1.133029
 C         3.149399        -0.080732        -0.790725
 O         2.398445        -1.067006        -0.329567
 H        -0.149807        -1.007168         1.155503
 H        -0.688667         0.403179         0.644999
 H        -0.443490        -1.063264        -0.565174
 H         1.590090         1.612328         1.328557
 H         2.223549         0.035926         2.117888
 H         4.533068         0.996970         1.880269
 H         2.145090         3.043630        -0.112587
 H         3.308036         2.364318        -1.375205
 H         1.281964         0.825867        -1.994677
 H         4.101580        -0.237040        -1.281904
