19
Iteration:  1266charge 0 multiplicity 1
 C        -0.068727        -0.425988         0.297878
 C         1.349707         0.005545         0.005430
 C         2.056079         0.792427         1.120756
 C         3.368442         1.058959         0.392363
 O         4.433495         1.561919         1.183504
 C         2.668579         2.162106        -0.581438
 C         2.008517         0.816480        -1.231347
 C         3.168345        -0.118899        -0.800311
 O         2.294827        -1.117897        -0.231191
 H        -0.244213        -1.267241         0.887622
 H        -0.623798         0.433636         0.809175
 H        -0.611841        -0.399396        -0.708652
 H         1.561346         1.639535         1.547773
 H         2.134540        -0.006918         2.077656
 H         4.673011         0.873353         1.938423
 H         2.064483         3.038899        -0.212486
 H         3.394453         2.630322        -1.306440
 H         1.351652         0.847977        -2.161787
 H         3.996315        -0.627675        -1.362429
