19
Iteration:  1776
 C        -0.017624        -0.371537         0.169986
 C         1.411475        -0.026333         0.044290
 C         2.053844         0.711575         1.181984
 C         3.320120         1.094841         0.426984
 O         4.509571         1.574631         1.064145
 C         2.524668         2.078978        -0.509534
 C         1.923631         0.853665        -1.185804
 C         3.161806        -0.037712        -0.777412
 O         2.319947        -1.151264        -0.181945
 H        -0.234186        -0.892912         1.136379
 H        -0.711903         0.576208        -0.016273
 H        -0.181798        -1.244146        -0.624417
 H         1.489370         1.648722         1.582126
 H         2.296957         0.182612         2.025810
 H         4.886339         0.731299         1.611660
 H         2.012030         2.950441         0.010356
 H         3.217557         2.691248        -1.149531
 H         1.431036         0.996533        -2.233450
 H         3.945977        -0.302748        -1.474503
