19
Iteration:  2524charge 0 multiplicity 1
 C        -0.031965        -0.395117         0.207922
 C         1.423689        -0.066755         0.047230
 C         2.134517         0.693271         1.238698
 C         3.306702         1.135853         0.387194
 O         4.493447         1.528223         1.026377
 C         2.536864         2.161587        -0.514517
 C         1.883430         0.881751        -1.144259
 C         3.145605        -0.003395        -0.780482
 O         2.352963        -1.139046        -0.267638
 H        -0.241567        -0.950749         1.190048
 H        -0.699453         0.379704         0.148916
 H        -0.205480        -1.188336        -0.547279
 H         1.435628         1.478215         1.573830
 H         2.504678         0.002641         2.104781
 H         4.526041         1.174097         2.027553
 H         1.937055         2.773750         0.165063
 H         3.121385         2.425716        -1.348971
 H         1.314992         0.995514        -2.104009
 H         3.940679        -0.446511        -1.469879
