19
Iteration:  4543
 C        -0.105413        -0.598757         0.221112
 C         1.302363         0.036964         0.106816
 C         2.150284         0.646000         1.311642
 C         3.253598         1.153322         0.412706
 O         4.504024         1.556299         0.951041
 C         2.670844         2.190189        -0.592542
 C         1.928940         0.941464        -1.077955
 C         3.145734        -0.005814        -0.777080
 O         2.322436        -1.090943        -0.282107
 H        -0.831903         0.128113         0.129166
 H        -0.313761        -1.418616        -0.426540
 H        -0.273168        -0.834532         1.318467
 H         1.576831         1.445527         1.842467
 H         2.221292        -0.215134         1.914202
 H         5.144985         0.828130         1.329021
 H         2.106343         3.090011        -0.380039
 H         3.552708         2.475069        -1.093650
 H         1.396656         0.813674        -1.982314
 H         3.996144        -0.355155        -1.426511
