19
Iteration:    12
 C        -0.122240        -0.340792        -0.025229
 C         1.327397         0.014404        -0.036059
 C         2.066234         0.836004         1.322667
 C         3.281307         1.159419         0.410447
 O         4.550928         1.440250         1.015161
 C         2.685640         2.144865        -0.667027
 C         1.993009         0.795533        -1.131107
 C         3.204810        -0.175735        -0.624972
 O         2.247579        -1.136412        -0.093264
 H        -0.259714        -0.843293         0.940141
 H        -0.643714         0.633034         0.064221
 H        -0.571545        -0.900136        -0.828947
 H         1.659487         1.822942         1.553747
 H         2.232279         0.279932         2.233492
 H         4.320524         1.119000         2.024161
 H         2.234045         2.957292        -0.132753
 H         3.519610         2.475477        -1.260419
 H         1.412366         0.795874        -2.046229
 H         4.046340        -0.657258        -1.096650
