19
Iteration:  3199
 C        -0.056801        -0.504892         0.221386
 C         1.379272         0.053840         0.066587
 C         2.175469         0.568066         1.304711
 C         3.264651         1.191808         0.453507
 O         4.483007         1.473911         0.963157
 C         2.550648         2.153849        -0.598255
 C         1.926008         0.866137        -1.155006
 C         3.163728         0.008959        -0.759025
 O         2.341376        -1.040606        -0.241583
 H        -0.075029        -1.116424         1.070943
 H        -0.789972         0.312356         0.071940
 H        -0.309487        -1.138818        -0.580934
 H         1.672856         1.479175         1.930288
 H         2.695580        -0.280223         1.865471
 H         4.511332         1.712918         1.968893
 H         1.762475         2.846956        -0.273225
 H         3.240699         2.594129        -1.360900
 H         1.223077         0.632481        -2.046448
 H         4.002805        -0.271643        -1.413739
