19
Iteration:  4888charge 0 multiplicity 1
 C        -0.084205        -0.484271         0.268373
 C         1.345944         0.037259         0.099649
 C         2.141781         0.638659         1.306574
 C         3.292027         1.152989         0.378918
 O         4.572846         1.444709         0.924164
 C         2.498370         2.222486        -0.537333
 C         1.896388         0.800480        -1.146794
 C         3.159178         0.044746        -0.783470
 O         2.406232        -1.101325        -0.271355
 H        -0.712372         0.445371         0.285911
 H        -0.428875        -1.074161        -0.603663
 H        -0.329045        -0.811917         1.211996
 H         1.670451         1.385291         1.884894
 H         2.365636        -0.130486         1.985819
 H         4.608072         1.525596         1.882108
 H         1.600943         2.710185        -0.233723
 H         3.201552         2.743162        -1.149117
 H         1.406578         0.692413        -2.081156
 H         3.924886        -0.175908        -1.479050
