19
Iteration:  3565
 C         0.029759        -0.618544         0.235432
 C         1.308849         0.020064         0.130513
 C         2.051297         0.692050         1.236288
 C         3.275914         1.204698         0.410746
 O         4.526409         1.505606         0.988017
 C         2.642169         2.131786        -0.627087
 C         1.960055         0.887922        -1.147018
 C         3.087752         0.035068        -0.728286
 O         2.318019        -1.039452        -0.263311
 H        -0.230857        -0.731808         1.353471
 H        -0.820349         0.026210         0.052040
 H         0.006497        -1.556274        -0.437532
 H         1.443743         1.523306         1.652115
 H         2.355686         0.094627         1.979160
 H         4.647505         0.745681         1.691771
 H         2.004062         2.938932        -0.191281
 H         3.403943         2.508547        -1.358834
 H         1.348901         0.777551        -2.010122
 H         4.019228        -0.259320        -1.270391
