19
Iteration:   726charge 0 multiplicity 1
 C        -0.079839        -0.419104         0.106321
 C         1.358814        -0.006667         0.105065
 C         2.022603         0.753792         1.237636
 C         3.258303         1.164990         0.418569
 O         4.526991         1.292810         1.088237
 C         2.683715         2.144625        -0.709030
 C         1.939335         0.806641        -1.151219
 C         3.156423         0.010978        -0.684186
 O         2.338887        -1.030400        -0.161483
 H        -0.190036        -1.235285         0.763802
 H        -0.757112         0.273238         0.471239
 H        -0.503452        -0.641377        -0.824318
 H         1.291242         1.623439         1.395853
 H         2.266834         0.050986         2.051533
 H         4.577027         2.206025         1.546826
 H         2.292028         3.071078        -0.349119
 H         3.481177         2.318317        -1.417212
 H         1.462003         0.664198        -2.090061
 H         4.114057        -0.247055        -1.061840
