19
Iteration:   128
 C        -0.112681        -0.399928         0.264192
 C         1.358945        -0.001694         0.041994
 C         1.960575         0.718531         1.219675
 C         3.269552         1.126386         0.385870
 O         4.346732         1.418981         1.130022
 C         2.870045         2.172359        -0.764879
 C         2.079502         0.887089        -1.201978
 C         3.201792        -0.047943        -0.699812
 O         2.274880        -1.035065        -0.174479
 H        -0.216277        -1.304978         1.013938
 H        -0.616448         0.415386         0.810689
 H        -0.659419        -0.890281        -0.738027
 H         1.410765         1.607739         1.646403
 H         2.247574         0.031321         2.093511
 H         4.554560         0.507862         1.561671
 H         2.336298         3.087747        -0.395576
 H         3.653900         2.326065        -1.560618
 H         1.625812         0.741696        -2.182523
 H         4.138029        -0.362253        -1.289187
