19
Iteration:  4635
 C        -0.069673        -0.549548         0.303528
 C         1.366946        -0.007246         0.125248
 C         2.065917         0.698055         1.238234
 C         3.270084         1.195271         0.403279
 O         4.555770         1.513954         0.963778
 C         2.676330         2.074960        -0.607512
 C         1.936866         0.921644        -1.140073
 C         3.132924        -0.039429        -0.764580
 O         2.286127        -1.116611        -0.327199
 H        -0.679614        -0.079233         1.142865
 H        -0.431318        -0.574116        -0.740362
 H        -0.049576        -1.465313         0.756490
 H         1.487090         1.549808         1.638313
 H         2.399637        -0.037644         2.115184
 H         4.261097         1.864530         1.828086
 H         2.258863         2.883335         0.016454
 H         3.451730         2.693129        -1.167168
 H         1.156670         1.149275        -1.994257
 H         4.082740        -0.117007        -1.302768
