19
Iteration:  2901charge 0 multiplicity 1
 C        -0.028517        -0.552597         0.201124
 C         1.328234         0.008499         0.106515
 C         2.171131         0.720721         1.281218
 C         3.258508         1.122603         0.384773
 O         4.498442         1.552243         1.039758
 C         2.590043         2.172412        -0.550787
 C         1.982783         0.896344        -1.227089
 C         3.091256         0.005784        -0.799443
 O         2.306730        -1.115931        -0.203186
 H        -0.113360        -1.525019         0.744047
 H        -0.741681         0.204651         0.806517
 H        -0.353040        -0.843068        -0.834752
 H         1.720907         1.580344         1.832004
 H         2.440913        -0.073605         1.858594
 H         4.833474         0.825859         1.527641
 H         1.768929         2.725783        -0.038729
 H         3.381774         2.691245        -1.165678
 H         1.430820         0.872471        -2.203127
 H         3.984176        -0.164477        -1.480050
