19
Iteration:  3910charge 0 multiplicity 1
 C        -0.066266        -0.568918         0.192551
 C         1.335713         0.004194         0.102388
 C         2.004593         0.745794         1.204497
 C         3.329471         1.139097         0.384895
 O         4.587935         1.442409         1.005066
 C         2.588042         2.153879        -0.584029
 C         1.881879         0.856330        -1.123244
 C         3.151302        -0.005558        -0.745019
 O         2.364621        -1.065760        -0.180517
 H         0.101414        -1.633228         0.436843
 H        -0.568643        -0.349337         1.200492
 H        -0.642040        -0.526449        -0.730194
 H         1.433313         1.764798         1.325661
 H         2.266300         0.180234         2.175204
 H         4.657315         2.446276         1.158614
 H         2.085572         2.950999         0.004566
 H         3.224429         2.527953        -1.388022
 H         1.403170         0.885327        -2.103814
 H         4.062895        -0.422035        -1.267797
