19
Iteration:  1174
 C        -0.110639        -0.378688        -0.017721
 C         1.348833        -0.038950         0.140089
 C         2.072148         0.766259         1.330536
 C         3.265125         1.106135         0.446062
 O         4.506692         1.502971         0.927101
 C         2.659066         2.047780        -0.563429
 C         1.982953         0.827717        -1.078346
 C         3.147702        -0.025861        -0.634002
 O         2.340346        -1.064685        -0.206526
 H        -0.690255        -0.749354         0.943999
 H        -0.717449         0.460070        -0.332569
 H        -0.207650        -1.206087        -0.754077
 H         1.420464         1.675906         1.631144
 H         2.338912         0.179303         2.243415
 H         4.941921         0.899289         1.469876
 H         2.116634         2.994798        -0.332261
 H         3.387114         2.413875        -1.326692
 H         1.506092         0.654255        -2.016740
 H         3.929211        -0.232512        -1.341887
