19
Iteration:  4336charge 0 multiplicity 1
 C        -0.059195        -0.642282         0.272165
 C         1.339415         0.054733         0.136254
 C         2.028619         0.723449         1.256965
 C         3.295394         1.156614         0.411258
 O         4.545782         1.437678         0.966863
 C         2.723022         2.118618        -0.640300
 C         1.830515         0.929220        -1.149124
 C         3.121425         0.047408        -0.762614
 O         2.334558        -1.066221        -0.229230
 H        -0.465340        -0.652886         1.272278
 H        -0.632451         0.031745        -0.369883
 H         0.093524        -1.637135        -0.250079
 H         1.428768         1.594765         1.712387
 H         2.176174        -0.088442         1.970729
 H         4.671357         1.826913         1.840997
 H         2.215753         3.013112        -0.190181
 H         3.387639         2.592922        -1.348829
 H         1.568623         0.600676        -2.106208
 H         4.077047        -0.124736        -1.443016
