19
Iteration:  2485charge 0 multiplicity 1
 C        -0.028116        -0.533915         0.290381
 C         1.340935        -0.001333         0.028280
 C         2.107354         0.660571         1.238600
 C         3.246319         1.171081         0.429196
 O         4.442816         1.512573         1.059488
 C         2.655076         2.126903        -0.672940
 C         1.888813         0.919699        -1.157949
 C         3.178555         0.010247        -0.701871
 O         2.327252        -1.066869        -0.272216
 H        -0.011204        -1.468703         0.877752
 H        -0.700567         0.183357         1.002660
 H        -0.430409        -0.864651        -0.694800
 H         1.525655         1.431473         1.873728
 H         2.457922        -0.126349         1.805966
 H         4.730098         0.837779         1.625240
 H         2.390646         3.172098        -0.442568
 H         3.478396         2.506170        -1.379239
 H         1.474061         0.841232        -2.190301
 H         4.049199        -0.122863        -1.333228
