19
Iteration:  3120
 C        -0.009685        -0.590598         0.164135
 C         1.379277         0.040380         0.115151
 C         2.117720         0.659555         1.240842
 C         3.289454         1.191770         0.380302
 O         4.511825         1.376520         0.977257
 C         2.536180         2.160594        -0.559958
 C         1.934746         0.929191        -1.100890
 C         3.134018         0.000966        -0.697108
 O         2.315533        -1.032001        -0.262730
 H         0.020470        -1.258058         0.970496
 H        -0.935724        -0.031813         0.444004
 H        -0.249713        -1.074664        -0.690313
 H         1.660886         1.492570         1.898052
 H         2.510575        -0.103066         2.123043
 H         4.583142         2.354026         1.395172
 H         1.899167         3.000250        -0.295723
 H         3.208003         2.557568        -1.329128
 H         1.398822         0.900021        -2.024245
 H         4.044875        -0.301155        -1.249321
