19
Iteration:   996charge 0 multiplicity 1
 C        -0.020795        -0.337796         0.169683
 C         1.353304         0.067326         0.006355
 C         2.167608         0.619755         1.227598
 C         3.276762         1.114534         0.385201
 O         4.454985         1.449167         1.097315
 C         2.610892         2.108676        -0.690576
 C         1.988128         0.850283        -1.189217
 C         3.134508        -0.029860        -0.629788
 O         2.295597        -1.121272        -0.172394
 H        -0.405255        -0.592956         1.179382
 H        -0.605999         0.540392        -0.092457
 H        -0.164397        -1.176266        -0.442971
 H         1.526225         1.549487         1.745425
 H         2.443729        -0.137256         1.957652
 H         4.161958         1.852881         1.858574
 H         1.994150         3.000693        -0.417282
 H         3.479973         2.394822        -1.383645
 H         1.427808         0.749420        -2.129672
 H         3.967457        -0.394267        -1.236096
