19
Iteration:  2333charge 0 multiplicity 1
 C        -0.023425        -0.498204         0.252277
 C         1.345570         0.022362         0.097661
 C         2.120578         0.557147         1.229802
 C         3.252365         1.147169         0.397838
 O         4.436194         1.523880         1.047144
 C         2.646718         2.160074        -0.691791
 C         1.931419         0.936603        -1.148242
 C         3.110546         0.031590        -0.702383
 O         2.366393        -1.052224        -0.255832
 H        -0.150653        -0.682350         1.295287
 H        -0.820368         0.325326        -0.110418
 H        -0.233957        -1.382420        -0.318952
 H         1.423152         1.279772         1.830689
 H         2.469078        -0.198142         2.151833
 H         4.753293         0.804664         1.504678
 H         2.010035         2.980218        -0.242009
 H         3.458308         2.369143        -1.456718
 H         1.563978         0.729574        -2.175912
 H         4.036265        -0.289726        -1.176549
