19
Iteration:  2427charge 0 multiplicity 1
 C        -0.045543        -0.451310         0.093301
 C         1.397872        -0.091388         0.132380
 C         2.021102         0.686867         1.269036
 C         3.327429         1.191055         0.371810
 O         4.524357         1.509850         0.953435
 C         2.590052         2.153719        -0.553908
 C         1.906717         0.853523        -1.073666
 C         3.152046         0.002432        -0.742156
 O         2.348427        -1.067747        -0.188862
 H        -0.050277        -1.441315         0.722060
 H        -0.695840         0.226341         0.627737
 H        -0.480064        -0.669197        -0.939813
 H         1.324888         1.546842         1.576458
 H         2.331228         0.167782         2.229507
 H         4.827008         0.805023         1.657373
 H         2.011149         2.766456         0.117659
 H         3.128796         2.561807        -1.401783
 H         1.423396         0.722921        -2.087629
 H         3.980885        -0.140386        -1.509634
