19
Iteration:  3146charge 0 multiplicity 1
 C        -0.065066        -0.455185         0.246371
 C         1.401311        -0.049381         0.099795
 C         2.054706         0.595049         1.313797
 C         3.247952         1.156216         0.421568
 O         4.531359         1.411895         0.958431
 C         2.528554         2.138296        -0.527864
 C         1.883384         0.903361        -1.193881
 C         3.160696         0.070192        -0.737737
 O         2.458564        -1.091831        -0.287305
 H        -0.333893        -0.822483         1.290619
 H        -0.811695         0.364572        -0.028368
 H        -0.427524        -1.097256        -0.628414
 H         1.557190         1.396342         2.016810
 H         2.489334        -0.082890         1.981262
 H         4.478415         2.363553         1.391232
 H         1.975493         3.039765        -0.150176
 H         3.194918         2.463365        -1.383022
 H         1.377545         0.839216        -2.229408
 H         4.088079        -0.143410        -1.277810
