19
Iteration:  1976charge 0 multiplicity 1
 C        -0.043149        -0.442446         0.184788
 C         1.379895        -0.088650         0.083586
 C         1.945207         0.715956         1.287374
 C         3.250178         1.118655         0.398698
 O         4.521877         1.527862         1.051561
 C         2.655823         2.135604        -0.636091
 C         1.918877         0.892680        -1.090129
 C         3.098003         0.063665        -0.765150
 O         2.424730        -1.161418        -0.257209
 H        -0.214274        -0.740861         1.269757
 H        -0.749086         0.405375        -0.022300
 H        -0.307794        -1.216523        -0.540908
 H         1.343899         1.721407         1.722562
 H         2.332266         0.122587         2.084849
 H         4.945742         0.791336         1.376784
 H         2.076169         2.901930        -0.112378
 H         3.403430         2.342382        -1.436023
 H         1.473168         0.833967        -2.077777
 H         4.051787        -0.016908        -1.343497
