19
Iteration:  4354charge 0 multiplicity 1
 C        -0.066948        -0.623042         0.259233
 C         1.361070        -0.053199         0.045277
 C         2.023762         0.789897         1.236324
 C         3.275599         1.161426         0.376721
 O         4.598285         1.335868         0.988624
 C         2.602963         2.183913        -0.556498
 C         1.947718         0.898148        -1.150880
 C         3.134553         0.056999        -0.755620
 O         2.361155        -1.025230        -0.209559
 H        -0.304247        -0.528613         1.382384
 H        -0.851331        -0.105565        -0.350976
 H         0.033723        -1.675617         0.186890
 H         1.457735         1.770540         1.349723
 H         2.231229         0.203427         2.146615
 H         4.310431         1.931986         1.715849
 H         1.983413         3.053168        -0.253926
 H         3.281927         2.456018        -1.428589
 H         1.183738         1.004703        -2.112710
 H         3.944574        -0.302090        -1.370056
