19
Iteration:  4410
 C        -0.100687        -0.479029         0.216339
 C         1.326369        -0.006968         0.109565
 C         2.101119         0.647978         1.236129
 C         3.276314         1.155718         0.379754
 O         4.570034         1.480706         0.957443
 C         2.617896         2.134210        -0.573308
 C         1.902567         0.832493        -1.075932
 C         3.114485         0.024998        -0.692513
 O         2.392380        -1.105136        -0.279587
 H        -0.567369         0.191611         0.951038
 H        -0.521509        -0.264963        -0.789441
 H        -0.097115        -1.535101         0.388813
 H         1.604488         1.496582         1.818361
 H         2.381748        -0.121534         1.941999
 H         4.354791         2.078468         1.781358
 H         2.070080         2.965600        -0.058130
 H         3.295459         2.628188        -1.296121
 H         1.334397         0.772433        -2.109884
 H         3.853446        -0.185898        -1.489763
