19
Iteration:  4145charge 0 multiplicity 1
 C        -0.089657        -0.427269         0.202235
 C         1.379403        -0.034955         0.079920
 C         2.157098         0.708939         1.251140
 C         3.315281         1.142598         0.362175
 O         4.507771         1.533544         0.984391
 C         2.571394         2.118708        -0.585898
 C         1.871794         0.804388        -1.122723
 C         3.140894        -0.045540        -0.727053
 O         2.391923        -1.093090        -0.241136
 H        -0.386545        -0.575616         1.231876
 H        -0.738266         0.362366        -0.101178
 H        -0.193062        -1.321953        -0.287310
 H         1.509421         1.537255         1.444636
 H         2.378411        -0.085316         2.013843
 H         4.390855         1.495107         1.976863
 H         2.030705         2.746152         0.106717
 H         3.077989         2.783055        -1.293426
 H         1.332569         0.903598        -2.097308
 H         4.013272        -0.342389        -1.223468
