19
Iteration:   335charge 0 multiplicity 1
 C        -0.126768        -0.386472        -0.018321
 C         1.378379         0.063566         0.067170
 C         2.048149         0.678250         1.311974
 C         3.302181         1.137478         0.429431
 O         4.516199         1.436946         1.001992
 C         2.587499         2.140303        -0.619830
 C         2.068834         0.759471        -1.142761
 C         3.186166         0.039472        -0.614126
 O         2.238362        -1.012047        -0.092838
 H        -0.253437        -1.379584         0.370654
 H        -0.898355         0.193954         0.438006
 H        -0.221483        -0.518692        -1.143016
 H         1.452484         1.666333         1.695715
 H         2.365346        -0.066684         2.113219
 H         5.080886         0.590409         0.887209
 H         1.841239         2.851675        -0.232893
 H         3.429902         2.457565        -1.244832
 H         1.618496         0.389079        -2.060314
 H         4.133455        -0.403417        -1.134677
