19
Iteration:  4746
 C        -0.116840        -0.425503         0.194348
 C         1.362390        -0.030622         0.142871
 C         2.215740         0.601838         1.335259
 C         3.301678         1.131221         0.388241
 O         4.507219         1.553990         0.915551
 C         2.638361         2.124533        -0.553564
 C         1.915688         0.886184        -1.074946
 C         3.158108        -0.080624        -0.792977
 O         2.278169        -1.072223        -0.277599
 H        -0.848950         0.466679         0.094996
 H        -0.228464        -1.199497        -0.661195
 H        -0.336994        -0.939799         1.104519
 H         1.652220         1.253713         2.088467
 H         2.380410        -0.355193         1.916919
 H         4.400987         2.482370         1.237124
 H         1.809551         2.755958        -0.189640
 H         3.438282         2.563078        -1.189444
 H         1.288762         0.887929        -2.004327
 H         4.137769        -0.355690        -1.092863
