19
Iteration:  2875charge 0 multiplicity 1
 C        -0.011740        -0.451390         0.207500
 C         1.329618        -0.046535         0.086551
 C         2.077580         0.676509         1.267763
 C         3.279637         1.112457         0.414508
 O         4.525308         1.568698         0.982619
 C         2.610712         2.156502        -0.576909
 C         1.873784         0.848500        -1.077727
 C         3.179950        -0.010246        -0.726008
 O         2.362780        -1.107893        -0.301428
 H        -0.153321        -1.498835         0.506703
 H        -0.523180         0.187920         0.940909
 H        -0.495384        -0.455894        -0.844977
 H         1.484986         1.505174         1.489223
 H         2.309952        -0.190065         2.110383
 H         4.674825         1.338592         1.837183
 H         1.955657         2.789562         0.005550
 H         3.188163         2.455397        -1.436017
 H         1.329964         0.972230        -2.005249
 H         3.907343        -0.150404        -1.466500
