19
Iteration:  3992charge 0 multiplicity 1
 C        -0.064043        -0.510434         0.233199
 C         1.393371         0.045120         0.093333
 C         2.069431         0.767848         1.216451
 C         3.331342         1.145125         0.401158
 O         4.468710         1.624625         0.967578
 C         2.570165         2.068446        -0.572437
 C         1.916928         0.853923        -1.085201
 C         3.203909        -0.096513        -0.753491
 O         2.340594        -1.141297        -0.222423
 H        -0.123311        -1.544554         0.630817
 H        -0.652666         0.307537         0.628147
 H        -0.394595        -0.437739        -0.833626
 H         1.634653         1.613532         1.597636
 H         2.153991         0.078338         2.036571
 H         4.811022         0.872543         1.633008
 H         1.931279         2.797310        -0.078815
 H         3.095473         2.547802        -1.415301
 H         1.407117         0.949698        -2.037230
 H         4.094731        -0.441971        -1.292576
