19
Iteration:  1681
 C        -0.059679        -0.454425         0.270835
 C         1.320681        -0.022827         0.073421
 C         1.989418         0.731320         1.220243
 C         3.241118         1.189916         0.421941
 O         4.467587         1.485632         1.093827
 C         2.720846         2.153107        -0.653678
 C         1.939220         0.836030        -1.150022
 C         3.192582        -0.000113        -0.737940
 O         2.362695        -1.115075        -0.294328
 H         0.056592        -1.384147         0.821972
 H        -0.664747         0.369513         0.740615
 H        -0.579513        -0.655482        -0.643797
 H         1.334521         1.574642         1.685441
 H         2.228298        -0.123277         2.023614
 H         4.857470         0.885083         1.642625
 H         2.262304         3.109715        -0.314143
 H         3.475288         2.433358        -1.423990
 H         1.591005         0.717163        -2.112591
 H         3.980008        -0.294535        -1.362617
