19
Iteration:  2749
 C        -0.063472        -0.501284         0.212052
 C         1.346764        -0.009491         0.086438
 C         2.131447         0.666301         1.296893
 C         3.291962         1.148433         0.429897
 O         4.517984         1.511321         1.055434
 C         2.537576         2.172437        -0.546269
 C         1.953710         0.883183        -1.177341
 C         3.121845         0.001904        -0.802652
 O         2.349199        -1.090690        -0.265147
 H        -0.334201        -0.794502         1.173061
 H        -0.854868         0.104539        -0.310901
 H        -0.146295        -1.288642        -0.477997
 H         1.561789         1.769619         1.587016
 H         2.363974         0.025296         2.162076
 H         5.188495         0.798836         1.076999
 H         1.952289         2.887227         0.021473
 H         3.043826         2.907068        -1.180620
 H         1.433743         0.603521        -2.106235
 H         4.036949        -0.323492        -1.387585
