19
Iteration:  2906charge 0 multiplicity 1
 C        -0.057784        -0.559065         0.214592
 C         1.334025         0.025742         0.093124
 C         2.149351         0.682492         1.277136
 C         3.268182         1.147891         0.386759
 O         4.481181         1.530763         1.037250
 C         2.612593         2.174986        -0.593906
 C         1.943571         0.873752        -1.233341
 C         3.099984         0.015725        -0.754093
 O         2.325775        -1.091380        -0.211620
 H        -0.069656        -1.450126         0.843870
 H        -0.643841         0.120166         0.658745
 H        -0.244527        -0.854078        -0.799887
 H         1.713009         1.437046         1.976371
 H         2.482416        -0.144788         2.089385
 H         5.046583         0.779369         1.514061
 H         1.900698         2.883369        -0.165722
 H         3.264298         2.807141        -1.167387
 H         1.501780         1.007492        -2.210782
 H         3.892394        -0.194248        -1.446532
