19
Iteration:  2982charge 0 multiplicity 1
 C        -0.041631        -0.499436         0.183393
 C         1.373193         0.023890         0.046644
 C         2.191220         0.608290         1.289501
 C         3.262115         1.173000         0.391699
 O         4.544884         1.498794         1.006274
 C         2.542439         2.129119        -0.566421
 C         1.868977         0.885319        -1.157719
 C         3.090032         0.051690        -0.712875
 O         2.336714        -1.062469        -0.237145
 H        -0.053062        -0.760224         1.275303
 H        -0.760211         0.230606        -0.202813
 H        -0.171847        -1.350669        -0.565076
 H         1.660550         1.314715         1.971329
 H         2.562349        -0.349698         1.826920
 H         4.487242         1.120428         1.826006
 H         2.016421         2.939155        -0.084176
 H         3.182804         2.641436        -1.272211
 H         1.576781         0.711680        -2.208001
 H         3.914890        -0.180857        -1.378673
