19
Iteration:    70
 C        -0.108792        -0.338673         0.078572
 C         1.308405        -0.033224         0.077943
 C         2.062631         0.758147         1.201921
 C         3.203674         1.187165         0.430654
 O         4.474756         1.378885         1.127701
 C         2.776546         2.088182        -0.635439
 C         2.061727         0.887668        -1.201082
 C         3.117740        -0.077736        -0.632681
 O         2.293196        -1.148495        -0.122309
 H        -0.479227        -0.787651         1.094199
 H        -0.619286         0.681624        -0.051619
 H        -0.349427        -0.904030        -0.821308
 H         1.428670         1.588774         1.626284
 H         2.344065         0.041671         2.029200
 H         4.974007         1.928242         0.527936
 H         2.150299         2.929879        -0.352419
 H         3.583794         2.420177        -1.289986
 H         1.588908         0.809360        -2.225797
 H         3.982392        -0.310130        -1.259111
