19
Iteration:   502charge 0 multiplicity 1
 C        -0.101281        -0.362985         0.061989
 C         1.311654         0.042012         0.103104
 C         1.917206         0.679662         1.303570
 C         3.274129         1.127723         0.423278
 O         4.534607         1.356916         0.974928
 C         2.679473         2.125287        -0.636167
 C         2.066578         0.821599        -1.153381
 C         3.194294        -0.024549        -0.632570
 O         2.364402        -1.077692        -0.154549
 H        -0.384188        -1.354374         0.404837
 H        -0.736742         0.285067         0.701297
 H        -0.465676        -0.400835        -1.009128
 H         1.284239         1.626193         1.815773
 H         2.176943        -0.055751         2.108274
 H         4.457010         2.353800         1.325544
 H         1.978506         2.876504        -0.197323
 H         3.454986         2.478484        -1.356682
 H         1.696703         0.797004        -2.124906
 H         4.013954        -0.235220        -1.240172
