19
Iteration:   957
 C        -0.099221        -0.401313         0.219943
 C         1.377789        -0.072423         0.049225
 C         2.039757         0.772508         1.155106
 C         3.280604         1.150422         0.439343
 O         4.491571         1.439051         1.065597
 C         2.690147         2.125288        -0.627883
 C         1.983911         0.895570        -1.166267
 C         3.164040        -0.074251        -0.647883
 O         2.302832        -1.155999        -0.249126
 H        -0.214411        -0.795275         1.279915
 H        -0.673026         0.518224         0.036913
 H        -0.580623        -1.078039        -0.540510
 H         1.495353         1.575969         1.446708
 H         2.224253         0.167398         2.059284
 H         4.357185         2.221712         1.709002
 H         2.082221         2.958360        -0.235299
 H         3.617015         2.285596        -1.180447
 H         1.607550         0.912810        -2.231521
 H         4.088945        -0.302356        -1.279666
