19
Iteration:  4486
 C        -0.040024        -0.480445         0.293485
 C         1.376746        -0.045165         0.146999
 C         2.096704         0.744747         1.226450
 C         3.270731         1.141948         0.354841
 O         4.492801         1.385817         1.000203
 C         2.570560         2.187941        -0.561225
 C         1.874117         0.860974        -1.117667
 C         3.087574         0.088443        -0.829332
 O         2.456859        -1.077060        -0.278453
 H        -0.558738         0.358510        -0.285115
 H        -0.197089        -1.502640        -0.120640
 H        -0.287238        -0.527637         1.346058
 H         1.330226         1.415871         1.646018
 H         2.394448         0.073793         1.998293
 H         4.515989         0.826374         1.725197
 H         1.940145         2.826726         0.084660
 H         3.268179         2.621198        -1.294222
 H         1.483373         0.858637        -2.253405
 H         4.041284        -0.117578        -1.374823
