19
Iteration:  4581
 C        -0.086340        -0.366871         0.183854
 C         1.426760        -0.055924         0.102591
 C         2.146535         0.676381         1.260642
 C         3.281297         1.137567         0.416654
 O         4.507676         1.485884         0.933346
 C         2.426644         2.242759        -0.545570
 C         1.955010         0.797968        -1.078601
 C         3.139623        -0.063126        -0.815389
 O         2.427450        -1.133123        -0.229875
 H        -0.518305         0.613852         0.655761
 H        -0.565054        -0.538570        -0.828195
 H        -0.299985        -1.192309         0.794405
 H         1.776016         1.579065         1.738737
 H         2.555384         0.015606         2.126020
 H         4.498912         1.068272         1.861133
 H         1.740269         2.832095         0.085457
 H         3.077478         2.734920        -1.345106
 H         1.248295         0.735166        -2.012973
 H         4.015291        -0.167930        -1.439704
