19
Iteration:  1936
 C        -0.048171        -0.423078         0.203173
 C         1.358963         0.050445         0.026903
 C         2.131196         0.657400         1.282144
 C         3.366310         1.148683         0.397967
 O         4.475820         1.599737         1.127719
 C         2.568117         2.105928        -0.622556
 C         1.945237         0.854417        -1.226746
 C         3.139293        -0.042650        -0.705375
 O         2.296060        -1.115799        -0.265305
 H        -0.070859        -0.702774         1.294684
 H        -0.834713         0.234172        -0.093134
 H        -0.248568        -1.431201        -0.247750
 H         1.591427         1.299296         1.777177
 H         2.196791        -0.214313         2.037630
 H         4.923340         0.724927         1.530704
 H         1.855499         2.775681        -0.078147
 H         3.145823         2.779809        -1.293031
 H         1.583286         0.710262        -2.315738
 H         3.934932        -0.368113        -1.489934
