19
Iteration:  4872
 C        -0.036511        -0.522588         0.245908
 C         1.393339        -0.066731         0.126978
 C         2.098469         0.672242         1.273352
 C         3.307946         1.113571         0.404506
 O         4.539538         1.492117         0.889765
 C         2.550598         2.120159        -0.567641
 C         1.914735         0.963236        -1.129327
 C         3.093810         0.044784        -0.791286
 O         2.327648        -1.048600        -0.212337
 H        -0.771404         0.272926         0.253194
 H        -0.205074        -1.190046        -0.598024
 H        -0.075953        -1.265971         1.133769
 H         1.572832         1.614934         1.665838
 H         2.373304        -0.019861         2.160108
 H         4.579892         0.928495         1.748909
 H         2.170404         2.974709         0.018006
 H         3.193278         2.668800        -1.318078
 H         1.324350         0.970497        -2.102220
 H         4.053578        -0.189634        -1.369118
