19
Iteration:  3332
 C        -0.077506        -0.471517         0.165539
 C         1.398359        -0.058541         0.129996
 C         2.127582         0.647569         1.269073
 C         3.304597         1.166205         0.419706
 O         4.520173         1.602721         0.968919
 C         2.566616         2.108187        -0.534236
 C         1.920882         0.857253        -1.075849
 C         3.105775        -0.032101        -0.818687
 O         2.357697        -1.092215        -0.268784
 H        -0.369068        -0.785053         1.133980
 H        -0.741506         0.458221        -0.083963
 H        -0.058746        -1.157076        -0.662573
 H         1.527588         1.496021         1.863368
 H         2.395116        -0.099377         1.964621
 H         4.690291         1.292624         1.889598
 H         1.911503         2.731922         0.116620
 H         3.142840         2.646802        -1.312762
 H         1.368534         0.655570        -2.058377
 H         3.894038        -0.255771        -1.535750
