19
Iteration:  2067charge 0 multiplicity 1
 C        -0.096282        -0.419908         0.249483
 C         1.369420        -0.070781         0.045064
 C         2.076071         0.793409         1.193016
 C         3.293169         1.170457         0.420088
 O         4.469558         1.568019         1.074283
 C         2.631230         2.142050        -0.517487
 C         1.930787         0.828140        -1.157933
 C         3.138667        -0.085217        -0.769780
 O         2.394702        -1.172038        -0.308359
 H        -0.022302        -1.434955         0.763748
 H        -0.573829         0.165608         0.979756
 H        -0.640649        -0.446608        -0.730506
 H         1.397655         1.596559         1.362828
 H         2.408873         0.227848         2.067930
 H         4.496272         1.090429         1.972638
 H         2.043842         2.970542        -0.120476
 H         3.337621         2.463963        -1.300197
 H         1.505859         0.771116        -2.206774
 H         4.061942        -0.284018        -1.409194
