19
Iteration:  4834charge 0 multiplicity 1
 C        -0.031742        -0.636895         0.278073
 C         1.335063        -0.010866         0.162562
 C         2.085510         0.732330         1.314578
 C         3.281884         1.173383         0.330437
 O         4.546839         1.412977         1.074328
 C         2.616842         2.137986        -0.656324
 C         1.859029         0.946477        -1.160319
 C         3.097348         0.069906        -0.772937
 O         2.336766        -0.997384        -0.242802
 H        -0.896315        -0.031297         0.717933
 H        -0.379434        -1.033335        -0.735337
 H         0.156098        -1.549807         0.799805
 H         1.408597         1.592848         1.567128
 H         2.436947         0.124073         2.112014
 H         5.253957         0.873601         0.769632
 H         2.087211         3.073515        -0.354004
 H         3.349515         2.358655        -1.444946
 H         1.541774         1.060811        -2.161583
 H         3.931091        -0.305392        -1.332825
