19
Iteration:  1780
 C         0.000677        -0.400774         0.162279
 C         1.403830        -0.036341         0.025734
 C         2.068364         0.751649         1.214273
 C         3.318833         1.084163         0.394653
 O         4.497327         1.563420         1.108682
 C         2.509251         2.101819        -0.528439
 C         1.936506         0.880409        -1.201896
 C         3.161287        -0.079400        -0.786935
 O         2.303735        -1.120817        -0.186202
 H        -0.231961        -0.863274         1.147754
 H        -0.627412         0.517260         0.113812
 H        -0.226559        -1.141216        -0.583039
 H         1.569570         1.630420         1.602982
 H         2.383214         0.013734         2.019332
 H         4.932390         0.882748         1.512844
 H         1.989583         2.941458        -0.040511
 H         3.255654         2.657692        -1.136900
 H         1.392175         0.793405        -2.072499
 H         3.918246        -0.377047        -1.491056
