19
Iteration:  3908
 C        -0.057247        -0.578523         0.180433
 C         1.328960         0.009567         0.102836
 C         2.026084         0.733370         1.213661
 C         3.312799         1.137566         0.398504
 O         4.587660         1.444107         0.997283
 C         2.609175         2.158709        -0.590498
 C         1.871806         0.868090        -1.126154
 C         3.149457         0.000111        -0.741247
 O         2.364189        -1.065773        -0.174449
 H         0.106466        -1.689137         0.416516
 H        -0.610640        -0.314684         1.144199
 H        -0.714695        -0.574866        -0.661776
 H         1.435573         1.821569         1.272917
 H         2.231410         0.190969         2.145281
 H         4.703323         2.345286         1.126939
 H         2.065721         2.925697        -0.003518
 H         3.236558         2.574272        -1.407338
 H         1.368070         0.806510        -2.088315
 H         4.018931        -0.336357        -1.171603
