19
Iteration:  2334charge 0 multiplicity 1
 C        -0.023172        -0.499481         0.252945
 C         1.349412         0.027484         0.107125
 C         2.111546         0.554521         1.221950
 C         3.250333         1.142420         0.404137
 O         4.435921         1.529938         1.050176
 C         2.642929         2.157497        -0.688684
 C         1.935661         0.929103        -1.152338
 C         3.115513         0.033605        -0.710802
 O         2.364959        -1.051973        -0.262486
 H        -0.180515        -0.649963         1.318532
 H        -0.812681         0.345394        -0.084768
 H        -0.225801        -1.400886        -0.302988
 H         1.472894         1.315835         1.794924
 H         2.454071        -0.207828         2.165084
 H         4.789250         0.784148         1.539435
 H         2.027034         2.979880        -0.228139
 H         3.442217         2.351480        -1.470617
 H         1.569658         0.727694        -2.168923
 H         4.018594        -0.271722        -1.193228
