19
Iteration:  4794charge 0 multiplicity 1
 C        -0.063557        -0.415017         0.312747
 C         1.352680         0.002775         0.131900
 C         2.099058         0.661575         1.217333
 C         3.313943         1.153279         0.344691
 O         4.452211         1.367193         1.064344
 C         2.538899         2.161486        -0.542585
 C         1.896546         0.880827        -1.220292
 C         3.188405        -0.027677        -0.752915
 O         2.436696        -1.092873        -0.270213
 H        -0.570658         0.259181         0.971335
 H        -0.501595        -0.563006        -0.640616
 H        -0.109762        -1.250763         1.069566
 H         1.433304         1.485647         1.620961
 H         2.399307         0.257499         2.168467
 H         4.812423         2.240021         0.665931
 H         1.826455         2.923895        -0.189070
 H         3.128402         2.445017        -1.404095
 H         1.378184         0.812223        -2.172524
 H         4.031604        -0.262296        -1.496707
