19
Iteration:   873
 C        -0.074781        -0.478980         0.104550
 C         1.325415         0.007495         0.008528
 C         2.050719         0.802397         1.343252
 C         3.222267         1.112002         0.427749
 O         4.549639         1.420279         1.000938
 C         2.719953         2.089788        -0.658956
 C         1.946205         0.849248        -1.231843
 C         3.168157        -0.020777        -0.654314
 O         2.300097        -1.087640        -0.115460
 H        -0.256868        -1.343346         0.649878
 H        -0.671032         0.315598         0.661615
 H        -0.563678        -0.640521        -0.956777
 H         1.385738         1.788223         1.645084
 H         1.986552        -0.058429         2.142209
 H         4.582057         1.984288         1.789842
 H         2.458799         3.091510        -0.288747
 H         3.550845         2.456068        -1.273171
 H         1.496605         0.740332        -2.231867
 H         4.099571        -0.243805        -1.184574
