19
Iteration:  1421charge 0 multiplicity 1
 C        -0.005323        -0.426533         0.201823
 C         1.378770         0.062786         0.076347
 C         2.085001         0.720527         1.194753
 C         3.331337         1.146817         0.424460
 O         4.459086         1.522593         1.094802
 C         2.674805         2.102970        -0.631332
 C         1.964962         0.850094        -1.183053
 C         3.167683        -0.096301        -0.733393
 O         2.225938        -1.087563        -0.235546
 H         0.019321        -1.391485         0.756932
 H        -0.690312         0.356301         0.625786
 H        -0.469176        -0.696936        -0.755056
 H         1.408550         1.424351         1.617333
 H         2.474176        -0.036420         1.961285
 H         4.462248         1.091508         1.965704
 H         1.979463         2.723141        -0.058231
 H         3.176677         2.656032        -1.434239
 H         1.415256         0.776345        -2.132914
 H         4.055410        -0.428530        -1.303666
