19
Iteration:  1534
 C        -0.044891        -0.417055         0.250742
 C         1.358049         0.009493         0.095259
 C         2.036956         0.673384         1.237833
 C         3.240135         1.173372         0.387086
 O         4.435784         1.531943         1.112615
 C         2.739955         2.073949        -0.603925
 C         1.915977         0.855566        -1.147557
 C         3.170635         0.045795        -0.776480
 O         2.364585        -1.144356        -0.304717
 H        -0.315890        -0.648771         1.319900
 H        -0.664964         0.354305        -0.158299
 H        -0.451183        -1.289035        -0.285511
 H         1.411042         1.603213         1.707069
 H         2.281330        -0.016156         2.008963
 H         4.773451         0.673253         1.616194
 H         2.232176         3.009486        -0.324394
 H         3.515638         2.262180        -1.377955
 H         1.340303         0.833825        -2.114643
 H         4.028683        -0.200119        -1.445544
