19
Iteration:  4958charge 0 multiplicity 1
 C        -0.040062        -0.542071         0.230905
 C         1.339692        -0.068527         0.066362
 C         2.188661         0.628558         1.221667
 C         3.278914         1.073583         0.353457
 O         4.557329         1.551557         1.060331
 C         2.572812         2.221943        -0.564600
 C         1.883406         0.903785        -1.030353
 C         3.131005         0.003224        -0.732435
 O         2.251668        -1.072052        -0.294061
 H        -0.619116         0.266604         0.651660
 H        -0.450910        -0.900624        -0.701291
 H        -0.069799        -1.358834         1.050372
 H         1.893065         1.523873         1.863184
 H         2.408184        -0.238200         1.890446
 H         4.837527         2.221519         0.493483
 H         2.031628         3.051321        -0.019092
 H         3.308664         2.495690        -1.305845
 H         1.459477         0.703071        -2.067191
 H         3.958328        -0.329430        -1.465179
