19
Iteration:  3162
 C        -0.109804        -0.412783         0.204346
 C         1.383945        -0.097482         0.057685
 C         2.122383         0.630366         1.205904
 C         3.265383         1.156308         0.420460
 O         4.501094         1.451160         0.949678
 C         2.544838         2.146942        -0.524228
 C         1.907967         0.827515        -0.999601
 C         3.184889         0.070295        -0.776631
 O         2.453889        -1.108317        -0.303233
 H        -0.455976        -0.648357         1.260124
 H        -0.570821         0.561941         0.166971
 H        -0.433163        -1.329820        -0.360761
 H         1.513260         1.397786         1.482595
 H         2.269042         0.036611         2.213081
 H         4.384998         2.219874         1.545697
 H         1.855228         2.817935        -0.028686
 H         3.199130         2.743925        -1.128311
 H         1.339371         0.749217        -1.864714
 H         3.992030        -0.144378        -1.504973
