19
Iteration:   192charge 0 multiplicity 1
 C        -0.148952        -0.321617        -0.072999
 C         1.306574         0.048301         0.048694
 C         2.131384         0.730309         1.337994
 C         3.224056         1.113067         0.427470
 O         4.509444         1.344909         0.980320
 C         2.698623         2.121535        -0.572446
 C         1.944284         0.791249        -1.157034
 C         3.159017        -0.001136        -0.624294
 O         2.332112        -1.094712        -0.077372
 H        -0.458145        -0.947040         0.850573
 H        -0.836544         0.513881        -0.203028
 H        -0.031298        -0.898552        -1.068329
 H         1.658362         1.550893         2.009176
 H         2.518033        -0.157877         1.997450
 H         4.763213         2.272277         1.397596
 H         2.081746         2.942594        -0.173940
 H         3.442189         2.468628        -1.323475
 H         1.469041         0.539875        -2.135622
 H         4.103628        -0.322461        -1.251182
