19
Iteration:  1713
 C        -0.026023        -0.459057         0.097914
 C         1.339145         0.039732         0.099219
 C         2.111699         0.729965         1.250458
 C         3.314335         1.098033         0.362901
 O         4.487782         1.514163         1.049800
 C         2.615532         2.139889        -0.563080
 C         1.903589         0.854858        -1.123387
 C         3.187017        -0.049441        -0.791684
 O         2.299876        -1.103755        -0.193877
 H        -0.247928        -0.959831         1.037553
 H        -0.863583         0.291277         0.255187
 H        -0.121389        -1.191024        -0.717858
 H         1.581570         1.688481         1.672494
 H         2.393798        -0.096868         1.981038
 H         4.559432         1.211300         2.058190
 H         2.090967         2.938226         0.051384
 H         3.261476         2.622312        -1.355086
 H         1.487656         0.946016        -2.053581
 H         3.871013        -0.508710        -1.427754
