19
Iteration:  1638charge 0 multiplicity 1
 C        -0.090580        -0.468505         0.163627
 C         1.355360         0.045932         0.055772
 C         2.053095         0.761710         1.277557
 C         3.304519         1.128073         0.344898
 O         4.504371         1.541813         1.081565
 C         2.640761         2.112542        -0.565334
 C         1.995734         0.846634        -1.168825
 C         3.179496        -0.041965        -0.769300
 O         2.317303        -1.120319        -0.183861
 H        -0.175433        -1.431711         0.590039
 H        -0.852296         0.085688         0.761808
 H        -0.564530        -0.582069        -0.779678
 H         1.468845         1.711569         1.502249
 H         2.183831        -0.101707         2.080897
 H         4.777308         0.739088         1.508242
 H         2.047438         2.886079        -0.078634
 H         3.179782         2.638473        -1.336891
 H         1.514684         0.803682        -2.094361
 H         3.975751        -0.346645        -1.387442
