19
Iteration:   674charge 0 multiplicity 1
 C        -0.067780        -0.358204         0.221823
 C         1.339303        -0.014799        -0.001296
 C         1.979893         0.760901         1.188036
 C         3.327577         1.066673         0.403543
 O         4.514430         1.491960         1.124390
 C         2.727904         2.105584        -0.638859
 C         1.987512         0.848794        -1.121212
 C         3.193569        -0.118461        -0.678174
 O         2.305053        -1.139979        -0.254996
 H        -0.182249        -1.168754         0.856063
 H        -0.766436         0.423877         0.534877
 H        -0.669380        -0.666190        -0.821263
 H         1.505091         1.762362         1.451625
 H         2.024391         0.081841         2.077048
 H         4.226108         2.205963         1.687143
 H         2.060329         2.833534        -0.153310
 H         3.339453         2.559824        -1.418586
 H         1.508331         1.038224        -2.059144
 H         3.953570        -0.445522        -1.361471
