19
Iteration:   138
 C        -0.147866        -0.436605         0.215342
 C         1.295611         0.054694         0.033394
 C         1.950644         0.767950         1.241670
 C         3.270651         1.131799         0.372750
 O         4.438601         1.398835         1.071725
 C         2.810911         2.076178        -0.705122
 C         2.041895         0.883836        -1.177100
 C         3.192971        -0.013759        -0.608804
 O         2.351048        -1.074604        -0.214942
 H        -0.097861        -1.347147         0.970808
 H        -0.733920         0.425016         0.603872
 H        -0.831359        -0.643043        -0.772319
 H         1.501918         1.759577         1.581920
 H         2.294578         0.088536         2.121169
 H         4.535790         0.734696         1.874396
 H         2.277387         3.048982        -0.594677
 H         3.666407         2.301526        -1.399970
 H         1.600414         0.982906        -2.178138
 H         4.131225        -0.354083        -1.193279
