19
Iteration:  1816charge 0 multiplicity 1
 C        -0.102587        -0.486318         0.238560
 C         1.368374        -0.038352         0.068193
 C         2.069524         0.685477         1.237818
 C         3.222838         1.139234         0.408402
 O         4.465207         1.552019         1.085805
 C         2.718600         2.156719        -0.690921
 C         1.937396         0.881724        -1.177546
 C         3.132946         0.066593        -0.677624
 O         2.345002        -1.109025        -0.237616
 H        -0.097329        -1.375630         0.831651
 H        -0.666960         0.296503         0.610260
 H        -0.659158        -0.627955        -0.659597
 H         1.527821         1.313964         1.913793
 H         2.407502        -0.266832         1.981889
 H         4.873033         0.824318         1.450800
 H         2.280222         3.117786        -0.546025
 H         3.619220         2.077872        -1.268469
 H         1.477882         0.695134        -2.248295
 H         4.063012        -0.240127        -1.329919
