19
Iteration:  3737charge 0 multiplicity 1
 C        -0.021832        -0.545257         0.162018
 C         1.366078         0.011585         0.122055
 C         2.087610         0.696274         1.313741
 C         3.222066         1.215733         0.400624
 O         4.447883         1.332244         1.014276
 C         2.608024         2.197119        -0.738271
 C         1.916153         0.820955        -1.178408
 C         3.125614         0.075440        -0.662973
 O         2.402974        -1.025272        -0.099530
 H         0.131319        -1.390685         0.745151
 H        -0.833440         0.136957         0.458700
 H        -0.429902        -1.009601        -0.734552
 H         1.597264         1.633980         1.718411
 H         2.480061        -0.042953         2.188689
 H         4.970833         1.851510         0.440830
 H         2.081080         3.012388        -0.235418
 H         3.287173         2.644987        -1.464678
 H         1.478972         0.502086        -2.100025
 H         3.933556        -0.160172        -1.479372
