19
Iteration:  1431charge 0 multiplicity 1
 C        -0.079563        -0.434168         0.159314
 C         1.379471         0.033442         0.040426
 C         2.133362         0.698343         1.287038
 C         3.262416         1.127691         0.354553
 O         4.491496         1.501342         1.087138
 C         2.621773         2.094891        -0.685517
 C         2.004604         0.846522        -1.170836
 C         3.181734         0.010782        -0.706688
 O         2.236461        -1.089513        -0.186663
 H         0.004439        -1.403745         0.731159
 H        -0.776336         0.253715         0.811336
 H        -0.386064        -0.548505        -0.937849
 H         1.770226         1.466135         1.876127
 H         2.353486        -0.219453         1.930560
 H         4.408615         1.123341         1.914333
 H         1.965310         2.932061        -0.303688
 H         3.396394         2.611754        -1.324171
 H         1.425827         0.836657        -2.113873
 H         4.101634        -0.413658        -1.145500
