19
Iteration:   622charge 0 multiplicity 1
 C        -0.041782        -0.402504        -0.015942
 C         1.339587         0.122067         0.025647
 C         2.051887         0.703714         1.239618
 C         3.246934         1.185439         0.386995
 O         4.557364         1.290448         0.972278
 C         2.607972         2.184227        -0.598263
 C         1.961085         0.782649        -1.155032
 C         3.147966         0.009921        -0.605760
 O         2.351640        -1.074455        -0.042136
 H        -0.447065        -0.848944         0.942859
 H        -0.845983         0.388455        -0.177759
 H        -0.079599        -1.334341        -0.626370
 H         1.650039         1.565870         1.708972
 H         2.197731         0.071520         2.104905
 H         4.542700         1.469892         1.862191
 H         1.852622         2.973985        -0.287616
 H         3.408893         2.643156        -1.235123
 H         1.377847         0.627521        -2.076283
 H         3.998345        -0.288899        -1.235983
