19
Iteration:  3054charge 0 multiplicity 1
 C        -0.023257        -0.532879         0.236728
 C         1.333871        -0.010380         0.087549
 C         2.163396         0.666286         1.247383
 C         3.218543         1.203040         0.378411
 O         4.489367         1.358106         0.998398
 C         2.526059         2.173239        -0.588874
 C         2.003626         0.851432        -1.211839
 C         3.120650         0.098790        -0.726138
 O         2.352917        -1.032016        -0.221263
 H         0.230870        -1.455642         0.666534
 H        -0.593356         0.120992         0.913075
 H        -0.534521        -0.472039        -0.637957
 H         1.614230         1.474770         1.870193
 H         2.696059        -0.102428         2.058512
 H         4.380369         1.629988         1.859830
 H         1.792981         2.942665        -0.277863
 H         3.203749         2.717173        -1.282377
 H         1.623020         0.568096        -2.161335
 H         3.952792        -0.282574        -1.339341
