19
Iteration:  3634
 C        -0.052939        -0.412074         0.140770
 C         1.428448        -0.051960         0.131220
 C         2.156181         0.738988         1.292040
 C         3.286713         1.194685         0.365042
 O         4.452162         1.498428         1.083224
 C         2.523126         2.102027        -0.592377
 C         1.908571         0.801780        -1.125325
 C         3.167807        -0.079145        -0.738691
 O         2.378019        -1.119035        -0.248550
 H        -0.360776        -0.849068         1.119692
 H        -0.745641         0.426763         0.329352
 H        -0.427129        -1.041236        -0.628327
 H         1.501087         1.533719         1.657733
 H         2.476944         0.090814         2.112515
 H         4.918757         2.111980         0.479701
 H         1.750663         2.778299        -0.203022
 H         3.181077         2.634854        -1.310315
 H         1.323455         0.724271        -2.114991
 H         4.045928        -0.265774        -1.275766
