19
Iteration:  3033
 C        -0.058728        -0.502269         0.247727
 C         1.394412         0.006568         0.050100
 C         2.072999         0.676720         1.245701
 C         3.323089         1.125017         0.399585
 O         4.547664         1.487563         1.015682
 C         2.537268         2.138300        -0.551690
 C         1.887468         0.895828        -1.159868
 C         3.183389         0.003968        -0.783524
 O         2.372106        -1.101399        -0.270077
 H         0.064693        -1.370655         0.861773
 H        -0.620904         0.385967         0.654782
 H        -0.557556        -0.624391        -0.632295
 H         1.605189         1.596578         1.721464
 H         2.230364        -0.152891         1.939133
 H         4.308307         1.746514         1.955618
 H         1.808570         2.808880        -0.042576
 H         3.095652         2.719568        -1.321296
 H         1.171993         0.757051        -1.951513
 H         4.065570        -0.423263        -1.310986
