19
Iteration:  3925charge 0 multiplicity 1
 C        -0.019440        -0.528595         0.290694
 C         1.376619        -0.033668         0.071485
 C         2.035741         0.785634         1.253794
 C         3.317888         1.173718         0.339889
 O         4.509810         1.470130         1.036184
 C         2.590554         2.096371        -0.583450
 C         1.959774         0.837690        -1.122660
 C         3.165557        -0.027563        -0.758858
 O         2.353565        -1.088148        -0.216916
 H        -0.170934        -1.593848         0.205172
 H        -0.590160         0.056138         0.954842
 H        -0.731576        -0.147061        -0.560596
 H         1.501711         1.525204         1.644381
 H         2.236100        -0.020022         1.978392
 H         4.402448         2.296092         1.378628
 H         1.857688         2.843174        -0.247606
 H         3.184773         2.551115        -1.381139
 H         1.438356         0.724088        -2.109558
 H         3.904366        -0.242021        -1.668432
