19
Iteration:   831charge 0 multiplicity 1
 C        -0.046292        -0.301762         0.205218
 C         1.398096         0.017728        -0.010501
 C         2.056282         0.731384         1.254906
 C         3.322958         1.111885         0.423308
 O         4.462078         1.448368         1.184588
 C         2.644258         2.058519        -0.680778
 C         1.956291         0.788571        -1.259517
 C         3.161835        -0.059911        -0.741135
 O         2.322785        -1.117729        -0.240377
 H        -0.187495        -0.773691         1.171721
 H        -0.573038         0.664562         0.419546
 H        -0.520060        -1.094556        -0.375270
 H         1.584279         1.618988         1.682014
 H         2.340925         0.179400         2.135822
 H         4.034383         2.101454         1.887262
 H         1.962057         2.876931        -0.285670
 H         3.350069         2.619626        -1.364195
 H         1.521574         0.591087        -2.222204
 H         3.971098        -0.486284        -1.270624
