19
Iteration:  4298
 C        -0.052795        -0.409445         0.230123
 C         1.392049        -0.022331         0.090377
 C         2.102930         0.671527         1.266074
 C         3.290784         1.152245         0.394413
 O         4.553592         1.524675         0.982876
 C         2.562521         2.169163        -0.588265
 C         1.913217         0.771568        -1.191826
 C         3.156300         0.009413        -0.762334
 O         2.361466        -1.108811        -0.184449
 H        -0.510541        -0.959645         1.074069
 H        -0.716825         0.422247         0.000556
 H        -0.266357        -0.991130        -0.662925
 H         1.591158         1.446656         1.831540
 H         2.365381        -0.156165         1.987921
 H         4.298040         1.505382         1.863979
 H         1.863860         2.803394        -0.050016
 H         3.130039         2.647757        -1.406359
 H         1.266456         0.578266        -2.131985
 H         3.926261        -0.301113        -1.358302
