19
Iteration:   675
 C        -0.058418        -0.359820         0.226848
 C         1.338056        -0.014102        -0.004075
 C         1.968731         0.754906         1.187778
 C         3.334253         1.070798         0.407329
 O         4.511608         1.491514         1.125860
 C         2.732386         2.098702        -0.643802
 C         1.992279         0.853284        -1.127998
 C         3.194348        -0.120371        -0.670041
 O         2.302182        -1.133029        -0.255219
 H        -0.175566        -1.204132         0.890474
 H        -0.786656         0.436622         0.537573
 H        -0.702467        -0.629884        -0.811905
 H         1.546934         1.744797         1.423668
 H         2.036409         0.069511         2.063782
 H         4.206919         2.182453         1.644230
 H         2.017222         2.809552        -0.147769
 H         3.346849         2.595176        -1.414238
 H         1.465827         1.047938        -2.067287
 H         3.971349        -0.445599        -1.371313
