19
Iteration:  3187charge 0 multiplicity 1
 C        -0.011263        -0.456760         0.203722
 C         1.393615        -0.030521         0.096455
 C         2.165403         0.654225         1.277949
 C         3.263399         1.160886         0.393965
 O         4.557476         1.493826         1.009241
 C         2.464950         2.103859        -0.574361
 C         1.897589         0.873147        -1.144765
 C         3.117195        -0.007963        -0.774308
 O         2.379674        -1.094372        -0.294125
 H        -0.324632        -0.744728         1.146076
 H        -0.632978         0.464141         0.177417
 H        -0.201452        -1.169985        -0.496193
 H         1.552807         1.396621         1.963791
 H         2.348693        -0.228318         2.032155
 H         4.303124         1.860823         1.793244
 H         1.812698         2.845461        -0.114573
 H         3.201305         2.678705        -1.152447
 H         1.343051         0.992905        -2.127001
 H         4.077367        -0.300093        -1.229336
