19
Iteration:  2931
 C        -0.040414        -0.540361         0.229623
 C         1.367849        -0.034410         0.077603
 C         2.034981         0.682257         1.215242
 C         3.185086         1.157298         0.421959
 O         4.519717         1.488237         1.011292
 C         2.628528         2.130994        -0.580774
 C         1.893084         0.861017        -1.049215
 C         3.170912         0.119950        -0.749492
 O         2.374573        -1.078863        -0.281323
 H        -0.200818        -0.994098         1.196076
 H        -0.644242         0.429171         0.283165
 H        -0.156445        -1.259545        -0.624777
 H         1.514937         1.404795         1.775598
 H         2.232023        -0.105626         2.149140
 H         5.053025         0.674401         1.121385
 H         2.195189         3.158776        -0.491872
 H         3.440812         2.370982        -1.306705
 H         1.296011         0.875354        -1.980313
 H         4.035890         0.132090        -1.392538
