19
Iteration:  1565
 C        -0.035579        -0.429033         0.191250
 C         1.363496        -0.015076         0.051144
 C         2.047241         0.715202         1.211970
 C         3.332687         1.168044         0.387336
 O         4.528481         1.478321         1.065438
 C         2.589520         2.094085        -0.554372
 C         1.984052         0.828824        -1.156251
 C         3.189360         0.016971        -0.745117
 O         2.282796        -1.106871        -0.241316
 H        -0.331380        -0.553690         1.327921
 H        -0.712594         0.329717        -0.178693
 H        -0.393168        -1.307303        -0.322222
 H         1.504934         1.570517         1.537516
 H         2.322397         0.036025         1.953812
 H         4.442319         1.063612         1.875709
 H         1.856616         2.756285        -0.082941
 H         3.147516         2.781360        -1.180535
 H         1.460090         0.819257        -2.137370
 H         4.037720        -0.234561        -1.425768
