19
Iteration:   999
 C        -0.018229        -0.330849         0.155922
 C         1.348912         0.047755         0.009329
 C         2.175773         0.617914         1.238902
 C         3.263610         1.147632         0.393216
 O         4.438942         1.431572         1.069793
 C         2.651524         2.119482        -0.673701
 C         1.973281         0.840256        -1.191520
 C         3.131712        -0.019641        -0.631164
 O         2.302722        -1.109798        -0.157545
 H        -0.374439        -0.610187         1.219856
 H        -0.624929         0.489354        -0.153171
 H        -0.262649        -1.144063        -0.515407
 H         1.530837         1.450327         1.705959
 H         2.487491        -0.110882         1.997143
 H         4.176689         1.853658         1.960058
 H         1.953295         2.966516        -0.344630
 H         3.451600         2.327950        -1.496108
 H         1.396716         0.721144        -2.165463
 H         4.039845        -0.412806        -1.227055
