19
Iteration:  2923
 C        -0.030690        -0.540886         0.207375
 C         1.345726        -0.000473         0.071169
 C         2.060129         0.598321         1.275725
 C         3.254901         1.177604         0.387270
 O         4.492989         1.507917         1.022335
 C         2.621047         2.159971        -0.635976
 C         1.900409         0.918834        -1.065226
 C         3.181924         0.062550        -0.724006
 O         2.361821        -1.011247        -0.256547
 H        -0.108780        -1.232139         1.106030
 H        -0.839964         0.329805         0.487450
 H        -0.382056        -1.213572        -0.611040
 H         1.451270         1.391317         1.773090
 H         2.343471        -0.196375         1.842315
 H         4.902168         0.563283         1.086757
 H         2.081448         3.049192        -0.228422
 H         3.365065         2.215879        -1.466233
 H         1.330394         0.636191        -1.973045
 H         4.136873        -0.233133        -1.277055
