19
Iteration:  3360
 C        -0.064660        -0.506755         0.213163
 C         1.364094        -0.014806         0.071038
 C         2.179815         0.566264         1.263914
 C         3.237445         1.214256         0.428324
 O         4.460305         1.478102         0.945289
 C         2.567618         2.129352        -0.632400
 C         1.935798         0.907869        -1.083780
 C         3.177713         0.037020        -0.711639
 O         2.354898        -1.023287        -0.241300
 H        -0.271331        -0.613893         1.341257
 H        -0.801568         0.174469        -0.272503
 H        -0.233640        -1.391116        -0.443936
 H         1.739560         1.245967         1.998052
 H         2.562489        -0.409218         1.793936
 H         4.508937         1.579805         1.981783
 H         1.952418         2.905268        -0.207562
 H         3.313136         2.454929        -1.374176
 H         1.373504         0.688664        -2.032281
 H         3.997933        -0.150997        -1.448498
