19
Iteration:  1609
 C        -0.060336        -0.440332         0.085886
 C         1.392223        -0.051874         0.131869
 C         2.054165         0.726094         1.348196
 C         3.242918         1.147864         0.403890
 O         4.544876         1.516788         0.972307
 C         2.670187         2.114532        -0.563372
 C         1.900737         0.841123        -1.098901
 C         3.134173         0.017249        -0.732276
 O         2.331719        -1.097253        -0.228013
 H        -0.455659        -1.318059         0.717427
 H        -0.711422         0.412915         0.127945
 H        -0.285289        -0.771810        -0.943415
 H         1.460625         1.514676         1.643558
 H         2.216301         0.013294         2.081385
 H         4.619609         1.204556         1.835549
 H         2.293875         3.055706        -0.199967
 H         3.354526         2.312354        -1.393070
 H         1.423329         0.663540        -2.121354
 H         4.010765        -0.298920        -1.369595
