19
Iteration:  4166charge 0 multiplicity 1
 C        -0.058668        -0.475074         0.229779
 C         1.375918         0.002490         0.103080
 C         2.065526         0.706793         1.249409
 C         3.224838         1.189477         0.401968
 O         4.519703         1.402665         0.947786
 C         2.515672         2.164326        -0.655917
 C         1.954379         0.831209        -1.143542
 C         3.177898         0.076776        -0.764243
 O         2.405199        -1.074527        -0.123047
 H        -0.166418        -0.943645         1.176126
 H        -0.585696         0.447286         0.281926
 H        -0.324368        -1.181798        -0.521114
 H         1.549277         1.533563         1.665337
 H         2.321955        -0.246049         1.846262
 H         4.490801         0.916024         1.732456
 H         1.790679         2.915645        -0.407969
 H         3.369347         2.533996        -1.246555
 H         1.629931         0.740164        -2.183912
 H         4.019814        -0.160391        -1.396929
