19
Iteration:   589charge 0 multiplicity 1
 C        -0.119043        -0.453353         0.141501
 C         1.316896         0.027644         0.073542
 C         1.956216         0.760512         1.260803
 C         3.277388         1.144113         0.417046
 O         4.565528         1.353620         1.039536
 C         2.706596         2.162914        -0.624742
 C         1.994569         0.834607        -1.140536
 C         3.197125        -0.022205        -0.657985
 O         2.326795        -1.100723        -0.233915
 H        -0.211850        -0.810229         1.174186
 H        -0.782778         0.412368        -0.138067
 H        -0.252466        -1.164016        -0.708835
 H         1.522273         1.710114         1.225749
 H         1.955653         0.264760         2.229678
 H         4.413252         1.910648         1.850669
 H         2.089613         3.058443        -0.346660
 H         3.557179         2.407210        -1.305048
 H         1.416364         0.784314        -2.038318
 H         4.021250        -0.326841        -1.279270
