19
Iteration:  4930charge 0 multiplicity 1
 C        -0.060965        -0.340147         0.281707
 C         1.414012        -0.069641         0.136149
 C         2.124561         0.587992         1.343595
 C         3.220344         1.097586         0.412087
 O         4.529882         1.512364         0.994151
 C         2.507114         2.176643        -0.519550
 C         1.926041         0.824500        -1.128633
 C         3.097772        -0.026657        -0.894189
 O         2.438553        -1.097695        -0.341701
 H        -0.648727         0.612472         0.364514
 H        -0.419876        -0.947506        -0.581435
 H        -0.220303        -0.887072         1.171149
 H         1.611568         1.359174         1.842386
 H         2.386266        -0.251343         2.019781
 H         4.476052         2.447077         1.072653
 H         1.977088         2.938068         0.013647
 H         3.319780         2.563968        -1.191086
 H         1.388553         0.529210        -1.996306
 H         3.851895        -0.254777        -1.544767
