19
Iteration:  2158charge 0 multiplicity 1
 C        -0.070314        -0.543253         0.085470
 C         1.378749         0.039988         0.087623
 C         2.109972         0.697095         1.335319
 C         3.265941         1.168192         0.411327
 O         4.509455         1.446182         0.925074
 C         2.569294         2.148753        -0.586715
 C         1.885883         0.903033        -1.121925
 C         3.184815        -0.014342        -0.687289
 O         2.376947        -1.031729        -0.174970
 H        -0.507659        -0.766767         1.071421
 H        -0.910499         0.249250        -0.243422
 H        -0.063561        -1.383436        -0.641656
 H         1.612323         1.515813         1.699960
 H         2.556350        -0.151037         2.007190
 H         4.691409         0.898063         1.806246
 H         1.813535         2.896770        -0.183617
 H         3.329171         2.626986        -1.241316
 H         1.392212         0.887667        -2.087005
 H         3.973608        -0.438358        -1.288083
