19
Iteration:  4650charge 0 multiplicity 1
 C        -0.034282        -0.641631         0.311785
 C         1.333591        -0.002486         0.122634
 C         2.107230         0.759998         1.227545
 C         3.335634         1.098235         0.379085
 O         4.544665         1.435471         1.003900
 C         2.686135         2.196065        -0.563595
 C         1.914315         0.923692        -1.155977
 C         3.089161         0.048487        -0.793682
 O         2.265077        -1.053022        -0.284128
 H        -0.770992         0.051492         0.759452
 H        -0.510096        -0.923081        -0.643736
 H         0.138174        -1.644238         0.864275
 H         1.584870         1.681140         1.538275
 H         2.309154         0.181862         2.068997
 H         4.405385         1.902119         1.937978
 H         1.988554         2.999650        -0.248791
 H         3.396065         2.427871        -1.328005
 H         1.411237         0.716335        -2.159346
 H         3.871098        -0.346365        -1.455411
