19
Iteration:  4656charge 0 multiplicity 1
 C        -0.029403        -0.662874         0.279222
 C         1.364151         0.023890         0.088102
 C         2.089469         0.756009         1.271082
 C         3.347488         1.154379         0.372080
 O         4.546394         1.382763         1.004865
 C         2.645753         2.196641        -0.603661
 C         1.863268         0.921479        -1.122920
 C         3.101347         0.010382        -0.788472
 O         2.288199        -1.009289        -0.267482
 H        -0.667147         0.000390         0.904280
 H        -0.449412        -1.032010        -0.666842
 H         0.077992        -1.434140         1.032905
 H         1.584682         1.679617         1.589153
 H         2.237798         0.036753         2.189052
 H         4.227948         1.765820         1.799860
 H         2.131498         3.095347        -0.232438
 H         3.378959         2.516969        -1.417340
 H         1.733816         0.784930        -2.217081
 H         3.765214        -0.433507        -1.541768
