19
Iteration:  2991charge 0 multiplicity 1
 C        -0.040534        -0.499514         0.174007
 C         1.345719        -0.002268         0.112876
 C         2.136938         0.551259         1.352284
 C         3.253888         1.158825         0.411269
 O         4.542016         1.518373         0.989907
 C         2.577752         2.200000        -0.625642
 C         1.903099         0.862138        -1.136463
 C         3.117721        -0.002080        -0.758411
 O         2.356881        -1.049672        -0.294199
 H        -0.259552        -0.855268         1.259272
 H        -0.780608         0.409818        -0.064204
 H        -0.345384        -1.338610        -0.465949
 H         1.632992         1.332147         1.954623
 H         2.551427        -0.151281         1.862823
 H         4.500809         1.345229         1.879365
 H         1.956994         2.970175        -0.176899
 H         3.396486         2.546794        -1.263139
 H         1.290910         0.883800        -2.047729
 H         4.099080        -0.106716        -1.247810
