19
Iteration:   475charge 0 multiplicity 1
 C        -0.056708        -0.475675        -0.047311
 C         1.358381         0.049660         0.042738
 C         2.109729         0.760737         1.293266
 C         3.290978         1.141551         0.442402
 O         4.594950         1.322889         0.989296
 C         2.611018         2.147438        -0.633215
 C         1.957287         0.869844        -1.138362
 C         3.116986        -0.020642        -0.602384
 O         2.256839        -1.038437        -0.071009
 H        -0.318635        -1.345590         0.625148
 H        -0.861602         0.240301         0.183001
 H        -0.261179        -0.753016        -1.132069
 H         1.528504         1.475421         1.637665
 H         2.412158         0.046860         2.044665
 H         4.338630         1.959594         1.797578
 H         1.972910         2.950372        -0.275481
 H         3.404762         2.301140        -1.352825
 H         1.349945         0.980149        -2.181247
 H         4.116165        -0.331925        -1.130219
