19
Iteration:  1093charge 0 multiplicity 1
 C        -0.060106        -0.477226         0.214417
 C         1.337811         0.052727         0.025419
 C         2.032855         0.721470         1.208491
 C         3.309991         1.211766         0.404473
 O         4.463745         1.489150         1.118831
 C         2.797345         2.089789        -0.695004
 C         1.931701         0.822470        -1.121418
 C         3.151973        -0.052606        -0.690349
 O         2.286486        -1.073512        -0.228210
 H        -0.208396        -1.390923         0.911630
 H        -0.616424         0.396705         0.722676
 H        -0.624789        -0.616917        -0.766102
 H         1.523259         1.592504         1.618459
 H         2.207419        -0.029129         1.943465
 H         4.300023         1.244363         1.974703
 H         2.251649         3.009916        -0.598721
 H         3.542534         2.054979        -1.465062
 H         1.543717         0.695522        -2.181920
 H         4.017513        -0.270600        -1.371447
