19
Iteration:  2316charge 0 multiplicity 1
 C        -0.074128        -0.542608         0.155424
 C         1.381330        -0.003458         0.064220
 C         2.097567         0.699757         1.303878
 C         3.208663         1.248180         0.435668
 O         4.489373         1.472281         0.970553
 C         2.645440         2.196504        -0.603380
 C         1.930627         0.845662        -1.167977
 C         3.169897         0.028601        -0.717016
 O         2.330346        -1.099424        -0.184807
 H        -0.339018        -1.006858         1.164212
 H        -0.740785         0.272095         0.195568
 H        -0.172892        -1.323356        -0.633256
 H         1.730642         1.413195         2.014938
 H         2.478967        -0.153620         1.759974
 H         4.699010         0.702329         1.498533
 H         2.126407         3.065582        -0.237513
 H         3.391519         2.438651        -1.354777
 H         1.330031         0.894798        -2.062457
 H         4.023788        -0.179543        -1.379817
