19
Iteration:  1422charge 0 multiplicity 1
 C        -0.019827        -0.428114         0.197140
 C         1.385142         0.061574         0.074108
 C         2.093429         0.716757         1.200592
 C         3.320435         1.141166         0.418438
 O         4.463215         1.520025         1.097521
 C         2.671690         2.099499        -0.641254
 C         1.967204         0.851643        -1.182982
 C         3.173728        -0.082823        -0.732066
 O         2.221437        -1.087889        -0.229182
 H         0.041463        -1.387850         0.749752
 H        -0.663421         0.313707         0.613597
 H        -0.428970        -0.653753        -0.731427
 H         1.393273         1.443165         1.666596
 H         2.475021        -0.050959         1.941514
 H         4.453152         1.112239         1.928818
 H         1.999191         2.718307        -0.091801
 H         3.159917         2.666556        -1.412636
 H         1.415518         0.795676        -2.108810
 H         4.057118        -0.429026        -1.270614
