19
Iteration:  1355charge 0 multiplicity 1
 C        -0.077173        -0.414297         0.119979
 C         1.403540         0.052498         0.069445
 C         2.080698         0.697887         1.306524
 C         3.299755         1.206845         0.391710
 O         4.501031         1.443697         1.052916
 C         2.593211         2.113340        -0.608678
 C         2.002085         0.840174        -1.212643
 C         3.129778        -0.010021        -0.711091
 O         2.279870        -1.102377        -0.159879
 H        -0.216561        -0.738398         1.122783
 H        -0.742788         0.367937        -0.364664
 H        -0.157148        -1.237513        -0.604610
 H         1.516026         1.494176         1.833833
 H         2.451954        -0.138045         2.094931
 H         4.985234         0.612247         1.471359
 H         1.782224         2.776882        -0.194580
 H         3.238408         2.693428        -1.294845
 H         1.338315         0.935872        -2.151212
 H         4.084286        -0.307015        -1.273512
