19
Iteration:  1977
 C        -0.038714        -0.443789         0.180237
 C         1.380509        -0.084101         0.082424
 C         1.942097         0.727549         1.279689
 C         3.252695         1.119432         0.407898
 O         4.529508         1.529291         1.049583
 C         2.652918         2.129969        -0.629036
 C         1.913854         0.884140        -1.087642
 C         3.095154         0.064410        -0.766116
 O         2.422690        -1.161095        -0.257255
 H        -0.220709        -0.784397         1.284673
 H        -0.731877         0.400995        -0.035248
 H        -0.341580        -1.221474        -0.558915
 H         1.362624         1.705723         1.722622
 H         2.334399         0.131237         2.112170
 H         4.955000         0.761663         1.409006
 H         2.064897         2.914199        -0.120951
 H         3.395788         2.349170        -1.447356
 H         1.443409         0.847471        -2.099158
 H         4.079928        -0.013270        -1.365837
