19
Iteration:  1623
 C        -0.074222        -0.451961         0.065467
 C         1.354130        -0.035288         0.079355
 C         2.063703         0.741867         1.162711
 C         3.378998         1.114833         0.455796
 O         4.542871         1.553126         1.017404
 C         2.619580         2.118009        -0.569814
 C         1.871379         0.860152        -1.050816
 C         3.111696        -0.057420        -0.695683
 O         2.331118        -1.123431        -0.218567
 H        -0.096074        -1.359174         0.736283
 H        -0.545314         0.395851         0.618170
 H        -0.384031        -0.665613        -1.043875
 H         1.500325         1.773099         1.508700
 H         2.230716         0.369719         2.172729
 H         4.768515         0.935579         1.853035
 H         1.946375         2.908017        -0.078974
 H         3.381894         2.497550        -1.323342
 H         1.293627         0.868826        -2.031582
 H         3.976914        -0.328729        -1.369899
