19
Iteration:  1441
 C        -0.103030        -0.427290         0.107428
 C         1.294220         0.033498         0.063812
 C         2.145570         0.661860         1.333884
 C         3.285861         1.165797         0.420805
 O         4.489448         1.468476         1.021317
 C         2.610009         2.160109        -0.663331
 C         1.986222         0.821763        -1.198912
 C         3.160732        -0.002010        -0.672273
 O         2.337626        -1.064475        -0.167144
 H        -0.215139        -1.462734         0.508442
 H        -0.806114         0.281232         0.775732
 H        -0.720619        -0.593307        -0.897920
 H         1.916777         1.486308         1.885198
 H         2.407227        -0.212984         2.003072
 H         4.423809         1.128457         1.862373
 H         1.979768         3.106187        -0.487108
 H         3.530430         2.253304        -1.290268
 H         1.603551         0.592110        -2.231778
 H         4.050670        -0.247668        -1.302290
