19
Iteration:  1198
 C        -0.030468        -0.456347         0.029446
 C         1.341956         0.054598         0.092128
 C         2.026339         0.782946         1.207605
 C         3.313152         1.139187         0.403986
 O         4.575738         1.510846         1.013925
 C         2.663432         2.108070        -0.535734
 C         1.938348         0.877800        -1.138404
 C         3.096683        -0.129633        -0.745435
 O         2.295660        -1.104398        -0.094292
 H        -0.442861        -0.963330         0.884546
 H        -0.771014         0.352189        -0.139901
 H        -0.108079        -1.184610        -0.854984
 H         1.625771         1.725561         1.668376
 H         2.072078        -0.086397         2.046398
 H         4.804473         0.877698         1.718558
 H         2.164112         2.960515         0.036012
 H         3.213218         2.697604        -1.283267
 H         1.388640         0.820548        -2.007867
 H         3.879629        -0.465547        -1.354170
