19
Iteration:  3794charge 0 multiplicity 1
 C        -0.113800        -0.422019         0.272240
 C         1.377128        -0.034999         0.097657
 C         2.132584         0.586435         1.223096
 C         3.247085         1.152857         0.420475
 O         4.430706         1.653967         1.024605
 C         2.599639         2.105475        -0.636997
 C         1.914919         0.875287        -1.163032
 C         3.224411        -0.045152        -0.722435
 O         2.356269        -1.095830        -0.261650
 H        -0.287684        -0.475909         1.312481
 H        -0.751492         0.362921        -0.114568
 H        -0.110543        -1.423069        -0.281304
 H         1.645657         1.424416         1.967727
 H         2.548548        -0.285299         1.836131
 H         5.036869         0.874801         1.227443
 H         1.975950         2.887810        -0.185162
 H         3.427458         2.509729        -1.241512
 H         1.212758         0.723002        -2.009964
 H         4.080957        -0.380457        -1.424630
