19
Iteration:  3680
 C        -0.052381        -0.515178         0.312740
 C         1.377061        -0.023348         0.086931
 C         2.061214         0.736078         1.223111
 C         3.274579         1.218298         0.442015
 O         4.447171         1.553222         1.073732
 C         2.676956         2.062060        -0.634729
 C         1.974815         0.810505        -1.183843
 C         3.148143        -0.056850        -0.742758
 O         2.308480        -1.124834        -0.302180
 H        -0.183999        -1.476005         0.749279
 H        -0.608534         0.042747         1.074617
 H        -0.498999        -0.493725        -0.608390
 H         1.591628         1.576350         1.642140
 H         2.393298         0.054090         2.112976
 H         4.550128         2.593723         0.972815
 H         2.236884         2.971837        -0.239637
 H         3.390490         2.298529        -1.409804
 H         1.470599         0.890366        -2.153256
 H         3.999729        -0.343447        -1.339094
