19
Iteration:  2307
 C        -0.057379        -0.550153         0.125327
 C         1.327454         0.018792         0.143038
 C         2.079677         0.712906         1.269521
 C         3.264375         1.181297         0.437213
 O         4.532307         1.482189         0.958185
 C         2.590305         2.151460        -0.567040
 C         1.949867         0.839622        -1.125700
 C         3.136226         0.046551        -0.762458
 O         2.349642        -1.071888        -0.196540
 H        -0.182085        -1.191684         1.041901
 H        -0.687932         0.262691         0.069997
 H        -0.384489        -1.089428        -0.793934
 H         1.670684         1.651159         1.804171
 H         2.286040         0.082789         2.030504
 H         4.762934         0.787322         1.570547
 H         2.043509         2.990496        -0.168660
 H         3.313555         2.439987        -1.315330
 H         1.481069         0.697550        -2.110817
 H         4.057250        -0.242056        -1.365307
