19
Iteration:  4026
 C        -0.057681        -0.618676         0.227123
 C         1.280432         0.013227         0.103692
 C         2.075681         0.709683         1.292732
 C         3.246894         1.238269         0.447935
 O         4.499844         1.484843         0.986653
 C         2.651802         2.129346        -0.694226
 C         1.916193         0.909998        -1.171111
 C         3.155108         0.036490        -0.711560
 O         2.374053        -1.050914        -0.154547
 H        -0.433055        -1.206390         1.172843
 H        -0.880285         0.114834         0.079810
 H        -0.051596        -1.352067        -0.594408
 H         1.549550         1.471234         1.827412
 H         2.313789        -0.110350         1.858278
 H         5.109608         0.668499         0.916996
 H         2.211373         3.107482        -0.465896
 H         3.456356         2.321345        -1.434929
 H         1.452034         0.951131        -2.159639
 H         4.023864        -0.164798        -1.254167
