19
Iteration:  2155charge 0 multiplicity 1
 C        -0.082458        -0.528219         0.081283
 C         1.370246         0.043134         0.090337
 C         2.101924         0.731713         1.334882
 C         3.274691         1.145167         0.404639
 O         4.510843         1.455011         0.923756
 C         2.582438         2.120155        -0.559171
 C         1.878637         0.903184        -1.101660
 C         3.198690        -0.018435        -0.702512
 O         2.379170        -1.049532        -0.178614
 H        -0.539394        -0.820254         1.020281
 H        -0.744878         0.145608        -0.210392
 H        -0.045129        -1.387968        -0.596534
 H         1.582676         1.577026         1.705694
 H         2.396294        -0.028932         1.928648
 H         4.643193         0.940294         1.685827
 H         1.834893         2.797764        -0.160935
 H         3.270819         2.633983        -1.213836
 H         1.402153         0.919570        -2.070760
 H         4.031011        -0.266737        -1.395363
