19
Iteration:  2048
 C        -0.089725        -0.518761         0.199671
 C         1.362254        -0.048622         0.141426
 C         2.013396         0.695214         1.261304
 C         3.310993         1.121734         0.390461
 O         4.500174         1.538245         1.024491
 C         2.679869         2.112789        -0.662701
 C         1.958490         0.846188        -1.107139
 C         3.205055         0.059835        -0.715801
 O         2.337141        -1.089590        -0.288308
 H        -0.243848        -1.572619         0.551887
 H        -0.633905         0.291388         0.845981
 H        -0.630125        -0.331901        -0.777097
 H         1.515462         1.541912         1.645830
 H         2.045100         0.015874         2.291173
 H         4.527557         1.392347         1.945861
 H         2.004674         2.920655        -0.285214
 H         3.324175         2.458502        -1.491074
 H         1.379589         0.771067        -2.006612
 H         3.995244        -0.133133        -1.402370
