19
Iteration:   834charge 0 multiplicity 1
 C        -0.065349        -0.309897         0.218306
 C         1.390165         0.054506         0.005451
 C         2.066738         0.727895         1.253246
 C         3.317773         1.138503         0.440088
 O         4.458993         1.447189         1.186388
 C         2.631909         2.069590        -0.701289
 C         1.953639         0.784372        -1.267103
 C         3.199120        -0.072663        -0.741096
 O         2.313200        -1.125258        -0.243152
 H        -0.173660        -0.905312         1.277657
 H        -0.596233         0.634614         0.378394
 H        -0.466503        -1.009970        -0.473467
 H         1.585823         1.541250         1.657419
 H         2.267731         0.082682         2.065688
 H         4.119653         2.052505         1.845171
 H         1.981999         2.850237        -0.253678
 H         3.408500         2.522861        -1.363877
 H         1.528036         0.601066        -2.233705
 H         4.022822        -0.481024        -1.297611
