19
Iteration:   905charge 0 multiplicity 1
 C        -0.060488        -0.482536         0.013514
 C         1.342966         0.023394         0.089787
 C         2.037907         0.836332         1.262539
 C         3.324588         1.181275         0.335070
 O         4.554710         1.277122         1.001320
 C         2.632014         2.229990        -0.673731
 C         1.963033         0.810697        -1.098910
 C         3.168857        -0.033200        -0.603168
 O         2.287727        -1.088325        -0.074544
 H        -0.234059        -1.450003         0.407003
 H        -0.857219         0.187074         0.502876
 H        -0.319866        -0.756576        -1.120855
 H         1.417522         1.849970         1.566344
 H         2.184239         0.246122         2.270703
 H         4.537581         1.976490         1.663782
 H         2.083168         2.894461        -0.025911
 H         3.226697         2.656077        -1.485327
 H         1.488973         0.600920        -2.071770
 H         4.050382        -0.271541        -1.243703
