19
Iteration:  4441charge 0 multiplicity 1
 C        -0.013792        -0.475837         0.201751
 C         1.355998         0.009140         0.108303
 C         2.120801         0.639275         1.314865
 C         3.267501         1.162502         0.404411
 O         4.577658         1.552727         0.940340
 C         2.590573         2.126240        -0.515421
 C         1.920731         0.861380        -1.158435
 C         3.110223        -0.044483        -0.726538
 O         2.304080        -1.086520        -0.303294
 H        -0.625171         0.524381         0.321506
 H        -0.268731        -0.950970        -0.802870
 H        -0.269200        -1.225214         0.917226
 H         1.770537         1.463225         1.917352
 H         2.342871        -0.190918         1.968436
 H         4.486498         1.777289         1.812730
 H         1.866615         2.702776         0.082787
 H         3.367073         2.560801        -1.188988
 H         1.149994         0.559091        -2.085143
 H         3.810435        -0.262216        -1.501411
