19
Iteration:   801charge 0 multiplicity 1
 C        -0.131281        -0.302821         0.156242
 C         1.345348         0.018798         0.036131
 C         2.015365         0.688426         1.268595
 C         3.277577         1.163193         0.408554
 O         4.499088         1.413489         1.054545
 C         2.667083         2.122767        -0.623614
 C         1.949556         0.811437        -1.187263
 C         3.232446        -0.029513        -0.681486
 O         2.399292        -1.145304        -0.210491
 H        -0.618013        -0.626066         1.307080
 H        -0.919787         0.421896        -0.150872
 H        -0.313897        -1.119400        -0.455124
 H         1.482352         1.536146         1.600146
 H         2.284920        -0.001534         2.026544
 H         4.406765         1.852708         1.869524
 H         2.133540         3.054136        -0.380379
 H         3.389665         2.504145        -1.376958
 H         1.424445         0.622751        -2.090497
 H         4.048412        -0.455823        -1.193548
