19
Iteration:  1122charge 0 multiplicity 1
 C        -0.052131        -0.367536         0.269132
 C         1.361776         0.015920         0.075361
 C         2.011911         0.806870         1.223821
 C         3.324329         1.103520         0.332029
 O         4.405756         1.575968         1.151649
 C         2.720459         2.074401        -0.558086
 C         1.993168         0.760910        -1.269762
 C         3.239766        -0.110908        -0.784685
 O         2.283778        -1.125967        -0.262827
 H        -0.277379        -0.958534         1.038612
 H        -0.643261         0.567551         0.395329
 H        -0.611985        -0.635293        -0.690448
 H         1.509399         1.747065         1.524112
 H         2.170307         0.051724         2.155661
 H         4.664022         0.831864         1.753604
 H         1.923200         2.711129        -0.081609
 H         3.472611         2.546841        -1.210818
 H         1.393270         0.670523        -2.120640
 H         4.135480        -0.376498        -1.253816
