19
Iteration:  1173charge 0 multiplicity 1
 C        -0.108487        -0.380275        -0.013943
 C         1.350765        -0.043184         0.143950
 C         2.069514         0.758705         1.330042
 C         3.260154         1.118966         0.455421
 O         4.508767         1.502992         0.926923
 C         2.661208         2.053417        -0.571038
 C         1.986861         0.824811        -1.078341
 C         3.138974        -0.031500        -0.630578
 O         2.343145        -1.059121        -0.210208
 H        -0.721210        -0.746539         0.967735
 H        -0.707252         0.461892        -0.346320
 H        -0.226233        -1.169634        -0.757578
 H         1.435653         1.666355         1.650626
 H         2.330893         0.174370         2.176017
 H         4.926801         0.889463         1.457401
 H         2.126062         2.984079        -0.306037
 H         3.398241         2.396043        -1.337337
 H         1.506919         0.628950        -2.053982
 H         3.951627        -0.242954        -1.351885
