19
Iteration:    99charge 0 multiplicity 1
 C        -0.082954        -0.375764         0.214614
 C         1.310336         0.104296        -0.042384
 C         2.072122         0.856112         1.200342
 C         3.329778         1.082008         0.422393
 O         4.402440         1.477684         1.319291
 C         2.723686         1.999728        -0.723576
 C         2.004081         0.862704        -1.177443
 C         3.185230        -0.144598        -0.732848
 O         2.271895        -1.103811        -0.268780
 H         0.025843        -0.880190         1.100305
 H        -0.724597         0.410169         0.560314
 H        -0.492588        -0.919400        -0.563478
 H         1.655444         1.781328         1.551578
 H         2.100781         0.178666         2.036096
 H         5.151047         0.972219         1.129227
 H         2.122444         2.814314        -0.304462
 H         3.290051         2.333601        -1.592796
 H         1.516487         0.882594        -2.144883
 H         4.011255        -0.415727        -1.318540
