19
Iteration:  3035charge 0 multiplicity 1
 C        -0.056199        -0.499016         0.261627
 C         1.407051         0.017843         0.056259
 C         2.078263         0.662362         1.255639
 C         3.326042         1.139876         0.402997
 O         4.542557         1.474695         1.021648
 C         2.515821         2.148088        -0.566399
 C         1.899354         0.894695        -1.162941
 C         3.193999        -0.011685        -0.788293
 O         2.363636        -1.086329        -0.258686
 H         0.023331        -1.475486         0.814197
 H        -0.673802         0.381543         0.707972
 H        -0.573490        -0.671258        -0.700255
 H         1.596268         1.561098         1.698634
 H         2.218361        -0.088025         1.829749
 H         4.325769         1.709534         1.872411
 H         1.773773         2.768231        -0.040289
 H         3.119631         2.689162        -1.321504
 H         1.216582         0.826197        -2.045614
 H         4.069814        -0.388291        -1.346105
