19
Iteration:  1950
 C        -0.074837        -0.462373         0.266263
 C         1.345442         0.016086         0.011035
 C         2.124273         0.645714         1.218882
 C         3.221959         1.146947         0.411494
 O         4.426011         1.553453         1.108186
 C         2.615023         2.113096        -0.590561
 C         2.004904         0.820593        -1.186059
 C         3.196261         0.000565        -0.780686
 O         2.311947        -1.040735        -0.228288
 H        -0.305675        -0.532925         1.260913
 H        -0.786196         0.275985        -0.102534
 H        -0.261827        -1.327889        -0.360383
 H         1.830022         1.453015         1.931674
 H         2.640258        -0.218845         1.710515
 H         4.946838         0.802780         1.264783
 H         1.907253         2.832418        -0.222353
 H         3.396143         2.352640        -1.271833
 H         1.472487         0.832506        -2.128022
 H         4.108803        -0.278472        -1.176556
