19
Iteration:   293
 C        -0.123689        -0.413808         0.138676
 C         1.366994         0.017140         0.099118
 C         1.988561         0.756379         1.207187
 C         3.257701         1.124282         0.466900
 O         4.433653         1.421307         1.142757
 C         2.765953         2.087894        -0.672968
 C         1.974187         0.820666        -1.144681
 C         3.200584         0.000054        -0.711737
 O         2.316913        -1.039013        -0.195205
 H        -0.279248        -1.318657         0.702990
 H        -0.630477         0.389969         0.667233
 H        -0.391822        -0.779420        -0.943101
 H         1.473617         1.788577         1.334868
 H         2.052237         0.136266         2.112089
 H         5.172392         0.940517         0.848306
 H         2.228173         2.969425        -0.262377
 H         3.561506         2.272858        -1.414096
 H         1.676902         0.744566        -2.126007
 H         3.917266        -0.216953        -1.470447
