19
Iteration:  3214
 C        -0.033636        -0.543570         0.204004
 C         1.340659        -0.020732         0.128721
 C         2.121695         0.618815         1.274323
 C         3.258076         1.168941         0.343290
 O         4.514113         1.494763         0.942493
 C         2.600334         2.191825        -0.607640
 C         1.928577         0.851763        -1.113648
 C         3.145258         0.094181        -0.728574
 O         2.323427        -1.067126        -0.217707
 H        -0.113145        -1.267090         1.123416
 H        -0.839590         0.112860         0.537805
 H        -0.324455        -1.012883        -0.885153
 H         1.580445         1.295728         2.031048
 H         2.364493        -0.181411         1.891040
 H         4.302375         1.383838         1.816331
 H         2.195700         3.115029        -0.118025
 H         3.397757         2.496422        -1.310887
 H         1.667328         0.787454        -2.144632
 H         3.995209        -0.148583        -1.361286
