19
Iteration:  4998
 C         0.030082        -0.609528         0.258345
 C         1.401520        -0.001879         0.090737
 C         2.087221         0.743210         1.282890
 C         3.321206         1.130241         0.359882
 O         4.457306         1.347849         1.036740
 C         2.538157         2.218655        -0.575578
 C         1.813306         0.913092        -1.121568
 C         3.093241         0.107080        -0.759483
 O         2.408956        -1.017924        -0.245655
 H        -0.566500         0.102785         0.861646
 H        -0.480642        -0.777503        -0.702256
 H         0.089562        -1.494009         0.872573
 H         1.504800         1.609913         1.589773
 H         2.372437         0.152431         2.081015
 H         5.267196         0.845542         0.608243
 H         2.139932         3.160286        -0.175014
 H         3.194781         2.332387        -1.457912
 H         1.251727         0.660866        -2.046101
 H         3.905261        -0.124364        -1.518785
