19
Iteration:  4318
 C        -0.042066        -0.525456         0.174677
 C         1.340150        -0.012196         0.096553
 C         2.163084         0.692338         1.302986
 C         3.261344         1.183076         0.372216
 O         4.500681         1.466572         0.944747
 C         2.610085         2.153063        -0.626923
 C         1.936690         0.846998        -1.093920
 C         3.113466        -0.001464        -0.691464
 O         2.315796        -1.055895        -0.232957
 H        -0.164909        -0.666900         1.249157
 H        -0.918200         0.006109        -0.195636
 H        -0.137262        -1.473836        -0.447732
 H         1.681650         1.419510         1.818015
 H         2.574279         0.009923         2.082446
 H         4.321266         1.656592         1.877608
 H         2.191912         3.127334        -0.431065
 H         3.456681         2.382796        -1.319089
 H         1.335213         0.959399        -1.985886
 H         3.960171        -0.274083        -1.262864
