19
Iteration:  4385
 C        -0.058387        -0.508683         0.277137
 C         1.409295         0.003106         0.099978
 C         2.094717         0.691505         1.266638
 C         3.214859         1.185889         0.374290
 O         4.520516         1.268668         1.010342
 C         2.513628         2.133643        -0.635181
 C         1.964744         0.907246        -1.172944
 C         3.131881         0.069462        -0.732387
 O         2.416808        -1.012700        -0.217703
 H        -0.367986        -0.035713         1.260238
 H        -0.644059        -0.113807        -0.577606
 H         0.104236        -1.554600         0.176325
 H         1.553890         1.450671         1.751610
 H         2.396715        -0.065214         2.009001
 H         4.426795         2.081598         1.612329
 H         1.823727         2.958322        -0.510167
 H         3.136140         2.591839        -1.445170
 H         1.358497         0.729561        -2.157192
 H         3.929384        -0.177498        -1.343399
