19
Iteration:  2567
 C        -0.080222        -0.464093         0.120462
 C         1.374822        -0.046546         0.111669
 C         2.105255         0.593713         1.339146
 C         3.256838         1.186290         0.431314
 O         4.538629         1.576443         0.920827
 C         2.593483         2.148275        -0.537910
 C         1.911022         0.892257        -1.128306
 C         3.113388         0.007320        -0.712248
 O         2.358414        -1.104095        -0.254837
 H        -0.308132        -0.771478         1.186497
 H        -0.656249         0.324487        -0.258575
 H        -0.397329        -1.269185        -0.566552
 H         1.621190         1.381877         1.789964
 H         2.385600        -0.211735         2.105565
 H         4.836779         0.708116         1.376026
 H         1.892556         2.922263        -0.100764
 H         3.427022         2.396195        -1.205729
 H         1.354335         0.985680        -2.099197
 H         4.155089        -0.070169        -1.187753
