19
Iteration:  2193charge 0 multiplicity 1
 C        -0.075896        -0.462685         0.245267
 C         1.357927         0.000768         0.055089
 C         2.101939         0.667497         1.238452
 C         3.282287         1.163236         0.429296
 O         4.455429         1.525901         1.030133
 C         2.619633         2.089760        -0.616592
 C         1.915271         0.863060        -1.115926
 C         3.176146         0.019948        -0.734211
 O         2.389563        -1.092772        -0.306760
 H        -0.079670        -1.104716         1.145527
 H        -0.796130         0.522818         0.156926
 H        -0.447281        -1.101320        -0.579803
 H         1.513127         1.479394         1.740818
 H         2.345065         0.071338         2.201949
 H         4.609799         1.052284         1.936564
 H         2.059890         2.972946        -0.198727
 H         3.388520         2.456616        -1.350146
 H         1.374648         0.790671        -2.082468
 H         3.945092        -0.411797        -1.379279
