19
Iteration:  4334charge 0 multiplicity 1
 C        -0.060525        -0.633068         0.258261
 C         1.344697         0.057192         0.127459
 C         2.041508         0.718373         1.274006
 C         3.282591         1.159564         0.408124
 O         4.543285         1.445208         0.963946
 C         2.731888         2.129687        -0.631251
 C         1.832945         0.918306        -1.144077
 C         3.126862         0.052168        -0.757465
 O         2.328501        -1.076325        -0.231381
 H        -0.476608        -0.724566         1.303204
 H        -0.666758         0.059376        -0.367123
 H         0.133251        -1.576620        -0.197258
 H         1.431269         1.628148         1.745127
 H         2.217088        -0.125247         1.945434
 H         4.593862         1.784955         1.797703
 H         2.222953         3.029305        -0.176703
 H         3.408339         2.557603        -1.410863
 H         1.488911         0.514587        -2.183601
 H         4.057032        -0.122084        -1.411829
