19
Iteration:  2256
 C        -0.113700        -0.486916         0.196530
 C         1.355888        -0.013580         0.141292
 C         2.105243         0.633883         1.315127
 C         3.246258         1.155146         0.435412
 O         4.450365         1.545494         0.979462
 C         2.659393         2.101816        -0.689063
 C         1.986956         0.844541        -1.216950
 C         3.195216         0.053943        -0.664006
 O         2.333969        -1.042272        -0.224997
 H        -0.062112        -1.523890         0.482470
 H        -0.899556         0.138838         0.741967
 H        -0.556354        -0.445820        -0.791794
 H         1.704383         1.428205         1.984547
 H         2.438266        -0.271279         2.026635
 H         4.782506         0.831300         1.681413
 H         2.056618         2.956056        -0.246706
 H         3.359474         2.620254        -1.375589
 H         1.425788         0.713413        -2.168444
 H         3.936407        -0.202898        -1.438856
