19
Iteration:  2554charge 0 multiplicity 1
 C        -0.134086        -0.437201         0.148966
 C         1.349684        -0.015685         0.116844
 C         2.130670         0.538235         1.383259
 C         3.249459         1.144923         0.467479
 O         4.501320         1.521635         0.915392
 C         2.557079         2.119802        -0.600503
 C         1.953189         0.879968        -1.169480
 C         3.178209         0.100243        -0.725473
 O         2.391137        -1.036585        -0.249124
 H        -0.597602        -0.755808         1.111870
 H        -0.886528         0.411954        -0.059930
 H        -0.040493        -1.317779        -0.481083
 H         1.576986         1.104264         1.990176
 H         2.571934        -0.304824         1.994785
 H         4.850555         1.000270         1.594753
 H         1.997112         3.064845        -0.286967
 H         3.273255         2.516386        -1.374093
 H         1.508093         0.658041        -2.111617
 H         4.015746        -0.338665        -1.306669
