19
Iteration:  2995
 C        -0.061900        -0.483987         0.187341
 C         1.349916        -0.022539         0.125690
 C         2.107331         0.570896         1.331651
 C         3.259061         1.158477         0.425859
 O         4.522182         1.521233         0.968610
 C         2.596518         2.196556        -0.622278
 C         1.928185         0.881371        -1.120138
 C         3.152414         0.022540        -0.787370
 O         2.358452        -1.070589        -0.309436
 H        -0.467196        -0.874731         1.141476
 H        -0.677242         0.353860         0.144629
 H        -0.287630        -1.381239        -0.459667
 H         1.613674         1.304595         1.969987
 H         2.583575        -0.302167         2.114126
 H         4.527746         1.432792         2.004493
 H         1.925513         2.993684        -0.271137
 H         3.404418         2.498949        -1.290442
 H         1.175850         0.869271        -1.945773
 H         4.094147        -0.227099        -1.266536
