19
Iteration:  3131
 C         0.008254        -0.543442         0.199925
 C         1.358585         0.024736         0.067168
 C         2.141002         0.597700         1.319238
 C         3.229223         1.180655         0.443226
 O         4.519868         1.385135         0.971277
 C         2.559616         2.189481        -0.625577
 C         1.925631         0.848697        -1.132742
 C         3.128849         0.090583        -0.740976
 O         2.313834        -1.023791        -0.223635
 H         0.023423        -1.127471         1.071595
 H        -0.648384         0.328303         0.194718
 H        -0.152870        -1.166907        -0.600839
 H         1.489965         1.313104         1.902876
 H         2.404754        -0.433917         1.833278
 H         4.631667         2.310554         1.318786
 H         1.852011         2.878620        -0.190538
 H         3.370745         2.643559        -1.180728
 H         1.447797         0.655823        -2.075147
 H         3.984718        -0.091975        -1.412086
