19
Iteration:  3912
 C        -0.074027        -0.561716         0.212140
 C         1.342927        -0.003875         0.098795
 C         1.985483         0.764046         1.201320
 C         3.343915         1.143197         0.368561
 O         4.586158         1.442659         1.012988
 C         2.568267         2.145874        -0.575790
 C         1.895455         0.846150        -1.119408
 C         3.154496        -0.012447        -0.747155
 O         2.364213        -1.065493        -0.187165
 H         0.100839        -1.585017         0.434675
 H        -0.523684        -0.356584         1.200132
 H        -0.580323        -0.464118        -0.795258
 H         1.458156         1.643208         1.408704
 H         2.272985         0.194317         2.160601
 H         4.597585         2.490297         1.179389
 H         2.100273         2.972969        -0.014620
 H         3.219126         2.491144        -1.370177
 H         1.431243         0.953846        -2.119218
 H         4.080146        -0.480973        -1.369439
