19
Iteration:  2972charge 0 multiplicity 1
 C        -0.018055        -0.491909         0.194037
 C         1.359685         0.015974         0.023240
 C         2.169388         0.671591         1.205099
 C         3.333605         1.166912         0.396503
 O         4.500013         1.476023         0.998941
 C         2.517071         2.137523        -0.506399
 C         1.899417         0.888620        -1.133049
 C         3.157298         0.090456        -0.755535
 O         2.318610        -1.086106        -0.203703
 H        -0.422239        -0.852463         1.144175
 H        -0.781461         0.187368        -0.029824
 H         0.007542        -1.461481        -0.370407
 H         1.707920         1.438563         1.874042
 H         2.431475        -0.310593         1.913707
 H         4.621136         0.906814         1.764252
 H         1.815158         2.817363        -0.030003
 H         3.135811         2.571935        -1.283331
 H         1.458830         0.752195        -2.145276
 H         3.867673        -0.275024        -1.463472
