19
Iteration:  2988
 C        -0.043028        -0.506244         0.177782
 C         1.354831         0.010940         0.096771
 C         2.152463         0.569695         1.341077
 C         3.251371         1.162726         0.401188
 O         4.551765         1.516251         0.990683
 C         2.563318         2.180645        -0.614996
 C         1.883994         0.860231        -1.146756
 C         3.094319        -0.003080        -0.734816
 O         2.352886        -1.043281        -0.277666
 H        -0.072223        -0.791431         1.233308
 H        -0.766073         0.320659        -0.195166
 H        -0.342915        -1.270996        -0.501196
 H         1.644663         1.337261         1.932799
 H         2.632194        -0.316322         1.860346
 H         4.470499         1.231114         1.989293
 H         1.977443         2.989927        -0.107076
 H         3.367606         2.607482        -1.270922
 H         1.412417         0.850947        -2.133254
 H         4.072871        -0.068375        -1.277312
