19
Iteration:    46charge 0 multiplicity 1
 C        -0.100991        -0.271461        -0.059137
 C         1.281127         0.113034         0.086964
 C         1.982709         0.658056         1.345005
 C         3.247937         1.097155         0.411454
 O         4.570064         1.339055         0.995455
 C         2.674388         2.057937        -0.647351
 C         1.993423         0.766469        -1.146965
 C         3.240741        -0.052001        -0.600610
 O         2.318110        -1.007193        -0.071659
 H        -0.435533        -0.814192         0.872829
 H        -0.766798         0.619909        -0.256554
 H        -0.161445        -0.894642        -0.868022
 H         1.539683         1.589003         1.751979
 H         2.059818        -0.138833         2.090938
 H         4.660098         2.263218         1.058319
 H         2.090603         2.918581        -0.373006
 H         3.456708         2.350622        -1.318890
 H         1.423338         0.427274        -2.031453
 H         4.051953        -0.314220        -1.181392
