19
Iteration:  1675
 C        -0.062597        -0.433722         0.303985
 C         1.357169        -0.001306         0.023286
 C         1.969493         0.676420         1.272054
 C         3.260518         1.203527         0.430421
 O         4.432449         1.485865         1.071281
 C         2.715862         2.161916        -0.687051
 C         1.946595         0.866124        -1.165147
 C         3.209177         0.026093        -0.703264
 O         2.337438        -1.135690        -0.266925
 H         0.208450        -1.448455         0.725022
 H        -0.673489         0.297999         0.777254
 H        -0.567825        -0.617873        -0.691977
 H         1.430134         1.388099         1.819467
 H         2.213804        -0.052172         1.975698
 H         4.774278         0.651655         1.535728
 H         2.300238         3.117384        -0.391099
 H         3.399898         2.261578        -1.532888
 H         1.615039         0.770441        -2.288038
 H         4.179365        -0.200063        -1.300471
