19
Iteration:  3538charge 0 multiplicity 1
 C        -0.030169        -0.546874         0.268857
 C         1.320960        -0.029546         0.137525
 C         2.084594         0.707970         1.192552
 C         3.339088         1.109001         0.346292
 O         4.479754         1.546334         1.027646
 C         2.619230         2.105045        -0.566410
 C         1.921194         0.925349        -1.151645
 C         3.115554         0.021184        -0.796949
 O         2.392768        -1.130812        -0.262994
 H        -0.149922        -1.085527         1.180723
 H        -0.674576         0.323826         0.532214
 H        -0.382964        -1.129515        -0.511504
 H         1.554053         1.624249         1.401956
 H         2.245314         0.241409         2.261943
 H         4.206740         1.467619         2.036279
 H         2.123853         2.933637        -0.081838
 H         3.303958         2.534439        -1.286107
 H         1.490160         0.926360        -2.204119
 H         3.841162        -0.239482        -1.545550
