19
Iteration:  4154charge 0 multiplicity 1
 C        -0.076894        -0.433249         0.243699
 C         1.368463        -0.024972         0.049302
 C         2.064066         0.710949         1.262829
 C         3.301429         1.165752         0.329260
 O         4.511578         1.468397         0.974020
 C         2.537030         2.165611        -0.566619
 C         1.926260         0.843917        -1.190732
 C         3.183809        -0.018412        -0.733595
 O         2.417490        -1.106228        -0.178988
 H        -0.318936        -0.730226         1.215933
 H        -0.782553         0.300092        -0.068426
 H        -0.373188        -1.244705        -0.488684
 H         1.619094         1.455573         1.870658
 H         2.472686         0.043822         2.131175
 H         4.480025         1.268055         1.941395
 H         1.958115         2.948094        -0.082335
 H         3.058599         2.643256        -1.422087
 H         1.254952         0.689687        -2.003357
 H         4.081303        -0.329498        -1.362617
