19
Iteration:  2586
 C        -0.039479        -0.475768         0.174586
 C         1.389829        -0.018722         0.108217
 C         2.036064         0.719493         1.221028
 C         3.373022         1.104270         0.392852
 O         4.472086         1.554068         0.981559
 C         2.605881         2.131758        -0.437595
 C         1.896586         0.885944        -1.070633
 C         3.153653         0.004224        -0.794954
 O         2.333498        -1.114890        -0.252188
 H        -0.171270        -1.032776         1.116122
 H        -0.798504         0.382332        -0.142177
 H        -0.165792        -1.139072        -0.691036
 H         1.450249         1.573339         1.528105
 H         2.271241         0.105140         2.117801
 H         5.153711         0.794234         1.280006
 H         2.014339         2.912433         0.100113
 H         2.993891         2.685008        -1.343974
 H         1.499032         0.632169        -2.025434
 H         3.835918        -0.395179        -1.541157
