19
Iteration:  1276charge 0 multiplicity 1
 C        -0.077827        -0.399318         0.220146
 C         1.321715         0.098667         0.052186
 C         2.098083         0.742633         1.178620
 C         3.330203         1.125905         0.353683
 O         4.435452         1.558902         1.157418
 C         2.694098         2.063429        -0.625766
 C         1.960391         0.855888        -1.191527
 C         3.152897        -0.137396        -0.716346
 O         2.299155        -1.103654        -0.256396
 H        -0.113720        -1.350276         0.779614
 H        -0.663888         0.380041         0.839530
 H        -0.616681        -0.748337        -0.764756
 H         1.643033         1.622682         1.587058
 H         2.443952        -0.088090         1.983125
 H         4.657199         0.857154         1.904039
 H         1.998797         2.757865        -0.026717
 H         3.387941         2.629711        -1.306530
 H         1.653915         0.703261        -2.232136
 H         4.056246        -0.484904        -1.246566
