19
Iteration:  2276charge 0 multiplicity 1
 C        -0.012380        -0.498266         0.088464
 C         1.333002        -0.024539         0.080808
 C         2.049720         0.752669         1.240004
 C         3.297721         1.172160         0.406036
 O         4.536175         1.536350         0.939579
 C         2.597814         2.128626        -0.515933
 C         1.883081         0.886057        -1.059996
 C         3.148541        -0.033797        -0.767246
 O         2.366736        -1.153254        -0.158436
 H        -0.120067        -1.459712         0.595522
 H        -0.579920         0.277381         0.622717
 H        -0.536568        -0.485882        -0.872257
 H         1.396547         1.689457         1.578016
 H         2.247102         0.061287         2.112504
 H         4.756339         0.895348         1.696073
 H         2.109193         3.053487        -0.152302
 H         3.291146         2.505674        -1.282853
 H         1.263308         0.861937        -1.993643
 H         4.117607        -0.369000        -1.281018
