19
Iteration:  4714
 C        -0.054279        -0.434323         0.215654
 C         1.371669        -0.018517         0.115537
 C         2.067815         0.701196         1.228237
 C         3.323514         1.167733         0.412038
 O         4.622299         1.351375         0.892068
 C         2.508117         2.157107        -0.523380
 C         1.819376         0.873510        -1.066513
 C         3.163413         0.016333        -0.745199
 O         2.406236        -1.082555        -0.233796
 H        -0.782079         0.312699        -0.166264
 H        -0.272440        -1.298072        -0.445799
 H        -0.257842        -0.865069         1.123951
 H         1.407304         1.543880         1.584503
 H         2.206413        -0.115321         1.975800
 H         4.567557         2.082122         1.620252
 H         1.770503         2.922668        -0.226562
 H         3.110578         2.726306        -1.267086
 H         1.244391         0.813305        -2.026551
 H         4.122487        -0.233432        -1.156170
