19
Iteration:    33
 C        -0.148997        -0.311366        -0.057355
 C         1.343805         0.059681         0.116090
 C         2.049085         0.794886         1.236128
 C         3.339162         1.121182         0.474516
 O         4.599500         1.366682         0.971895
 C         2.634087         2.041027        -0.621483
 C         2.031966         0.760053        -1.129912
 C         3.116709        -0.044640        -0.597149
 O         2.258892        -1.095325        -0.087181
 H        -0.713185        -0.827707         0.681138
 H        -0.724973         0.564587        -0.286226
 H        -0.055162        -0.836085        -1.005364
 H         1.525942         1.638872         1.657854
 H         2.274287         0.125093         2.044760
 H         4.558082         2.130773         1.650300
 H         1.907465         2.731509        -0.186022
 H         3.339992         2.544171        -1.277192
 H         1.729998         0.676787        -2.151811
 H         3.994834        -0.396128        -1.137388
