19
Iteration:  2247
 C        -0.080451        -0.501778         0.221422
 C         1.264372         0.054638         0.112475
 C         2.090120         0.639794         1.345721
 C         3.294909         1.164701         0.392364
 O         4.440909         1.573698         1.047970
 C         2.624516         2.091390        -0.703387
 C         1.985623         0.857319        -1.208987
 C         3.265982         0.048442        -0.757267
 O         2.299386        -1.080525        -0.250259
 H        -0.257542        -1.468231         0.661011
 H        -0.595109         0.146785         1.095906
 H        -0.471730        -0.503216        -0.787466
 H         1.674590         1.297282         2.003960
 H         2.558058        -0.360814         1.762055
 H         4.788614         0.768340         1.651902
 H         1.950207         2.922484        -0.325255
 H         3.493845         2.422276        -1.349073
 H         1.371793         0.697774        -2.114857
 H         4.254734        -0.301540        -1.006731
