19
Iteration:  2580charge 0 multiplicity 1
 C        -0.030907        -0.477645         0.149236
 C         1.378484        -0.040449         0.058015
 C         2.061401         0.725157         1.226103
 C         3.286892         1.100537         0.426638
 O         4.505567         1.560976         0.953863
 C         2.598804         2.155636        -0.479652
 C         1.911371         0.866969        -1.025708
 C         3.153781         0.002618        -0.750537
 O         2.339046        -1.125089        -0.256568
 H        -0.430630        -0.836826         1.136562
 H        -0.590750         0.368991        -0.026924
 H        -0.139888        -1.255672        -0.633446
 H         1.434071         1.556281         1.728324
 H         2.316045        -0.039191         1.992538
 H         5.113390         0.885353         1.289485
 H         2.101977         3.007437         0.025734
 H         3.200676         2.791765        -1.143915
 H         1.322828         0.697089        -1.988393
 H         3.799667        -0.386414        -1.598675
