19
Iteration:  3383
 C        -0.016480        -0.539153         0.277070
 C         1.374716        -0.055981         0.105641
 C         2.062878         0.728664         1.277761
 C         3.259658         1.164270         0.383483
 O         4.558784         1.419556         1.010223
 C         2.551568         2.203497        -0.548604
 C         1.880811         0.881386        -1.179432
 C         3.149201         0.039333        -0.759568
 O         2.404604        -1.131293        -0.317189
 H        -0.186634        -0.661902         1.387067
 H        -0.724470         0.270982        -0.198155
 H        -0.225088        -1.365401        -0.434635
 H         1.487800         1.569691         1.501513
 H         2.180241         0.068223         2.239798
 H         4.347474         1.876013         1.769839
 H         1.959374         2.968362        -0.048894
 H         3.350021         2.586637        -1.208997
 H         1.195326         0.830445        -2.154902
 H         4.019477        -0.073750        -1.434801
