19
Iteration:  3115charge 0 multiplicity 1
 C        -0.026216        -0.592112         0.171722
 C         1.351806         0.044516         0.107660
 C         2.110372         0.702728         1.266713
 C         3.295155         1.177412         0.372392
 O         4.526162         1.387466         0.986283
 C         2.549710         2.161286        -0.537732
 C         1.919706         0.947834        -1.105065
 C         3.157336        -0.003402        -0.706735
 O         2.328140        -1.061717        -0.272325
 H        -0.104265        -1.500615         0.914562
 H        -0.854431        -0.033828         0.610639
 H        -0.201587        -1.192365        -0.840942
 H         1.681898         1.544107         1.754022
 H         2.508312         0.119721         2.011635
 H         4.499831         2.223950         1.362718
 H         1.968008         3.041106        -0.185306
 H         3.125104         2.524441        -1.413628
 H         1.340888         0.962796        -2.060131
 H         4.033150        -0.408625        -1.218031
