19
Iteration:  3529charge 0 multiplicity 1
 C        -0.069969        -0.498934         0.334155
 C         1.394562        -0.053470         0.094436
 C         2.081129         0.669217         1.216998
 C         3.279106         1.153198         0.345630
 O         4.472019         1.528276         1.033208
 C         2.653360         2.149282        -0.616875
 C         1.957998         0.852944        -1.132341
 C         3.087934         0.003270        -0.794567
 O         2.392583        -1.076904        -0.262491
 H        -0.110828        -1.377260         0.951028
 H        -0.720301         0.400130         0.434453
 H        -0.471007        -0.930755        -0.635009
 H         1.532809         1.475751         1.568855
 H         2.427538         0.037650         1.984196
 H         4.239611         1.543291         2.055659
 H         1.968720         2.889330        -0.168425
 H         3.329632         2.638415        -1.302520
 H         1.332997         0.706950        -1.996517
 H         3.991433        -0.157486        -1.409121
