19
Iteration:  2470
 C        -0.040893        -0.594555         0.246052
 C         1.344241         0.017704         0.080282
 C         2.068346         0.605951         1.246798
 C         3.233816         1.187772         0.379224
 O         4.445098         1.527353         1.015653
 C         2.721368         2.177185        -0.644163
 C         1.986918         0.871133        -1.143638
 C         3.119480         0.079507        -0.709637
 O         2.314221        -1.010478        -0.208452
 H         0.088542        -1.637160         0.721089
 H        -0.598431         0.104603         0.758749
 H        -0.715827        -0.544616        -0.630759
 H         1.541411         1.375851         1.924533
 H         2.410808        -0.254552         1.982815
 H         4.809677         0.554284         1.303855
 H         2.063857         3.051064        -0.440997
 H         3.549954         2.368152        -1.394768
 H         1.468112         0.723503        -2.132361
 H         3.987950        -0.379325        -1.277861
