19
Iteration:  4333
 C        -0.060068        -0.625832         0.251497
 C         1.346263         0.056438         0.121772
 C         2.047438         0.718140         1.282684
 C         3.276727         1.160827         0.406426
 O         4.542331         1.447045         0.958812
 C         2.733474         2.137150        -0.626655
 C         1.836660         0.910800        -1.141903
 C         3.129777         0.053811        -0.754360
 O         2.326050        -1.079899        -0.232636
 H        -0.475998        -0.758161         1.308488
 H        -0.691028         0.062122        -0.361855
 H         0.145174        -1.556763        -0.175430
 H         1.449959         1.620055         1.750288
 H         2.242875        -0.138326         1.942878
 H         4.548770         1.785195         1.829844
 H         2.226792         3.029990        -0.175336
 H         3.419557         2.529322        -1.436791
 H         1.448602         0.492322        -2.204630
 H         4.025902        -0.121317        -1.384415
