19
Iteration:  4015
 C        -0.077139        -0.590190         0.194991
 C         1.401551         0.030661         0.105209
 C         2.074933         0.691332         1.315007
 C         3.259711         1.180627         0.392541
 O         4.507191         1.559153         1.001570
 C         2.658884         2.134351        -0.624456
 C         1.898171         0.876906        -1.190869
 C         3.115367         0.042950        -0.731797
 O         2.310860        -1.083482        -0.154764
 H         0.064602        -1.344076         1.058892
 H        -0.888977         0.190111         0.193252
 H        -0.232919        -1.123758        -0.749914
 H         1.575240         1.501634         1.775031
 H         2.355090         0.071053         2.084564
 H         4.925333         0.750669         0.950927
 H         2.116778         3.048018        -0.360514
 H         3.472910         2.335423        -1.352174
 H         1.581915         0.630711        -2.197000
 H         3.916826        -0.305388        -1.285442
