19
Iteration:   975
 C        -0.121934        -0.362982         0.223445
 C         1.319533         0.028580         0.019741
 C         2.079281         0.734991         1.266304
 C         3.331559         1.142049         0.450476
 O         4.511154         1.494168         1.145145
 C         2.689544         2.089272        -0.618429
 C         2.029364         0.753566        -1.202500
 C         3.191665        -0.096265        -0.808914
 O         2.281694        -1.088537        -0.283719
 H        -0.329009        -0.654615         1.311804
 H        -0.825139         0.428100         0.016944
 H        -0.362273        -1.202506        -0.333142
 H         1.363706         1.666771         1.625817
 H         2.229731         0.084700         2.123325
 H         4.291590         2.166871         1.890406
 H         1.873393         2.703834        -0.155037
 H         3.241990         2.534954        -1.517683
 H         1.498540         0.582532        -2.169773
 H         4.069660        -0.521864        -1.352024
