19
Iteration:  2805
 C        -0.065581        -0.569724         0.258630
 C         1.376026        -0.052653         0.104209
 C         2.035372         0.760054         1.226513
 C         3.338203         1.151288         0.437902
 O         4.529255         1.479201         1.027403
 C         2.593081         2.144508        -0.563134
 C         1.954370         0.924150        -1.087172
 C         3.130591        -0.006430        -0.862324
 O         2.349470        -1.073514        -0.309919
 H        -0.307214        -1.119393         1.144058
 H        -0.685748         0.334923         0.164112
 H        -0.337663        -1.198975        -0.549252
 H         1.493195         1.789994         1.603018
 H         2.358108         0.056502         2.084926
 H         4.613927         1.186924         1.883888
 H         1.874313         2.745893        -0.039660
 H         3.211687         2.589005        -1.338314
 H         1.250229         0.910932        -1.961158
 H         4.088415        -0.246493        -1.464658
