19
Iteration:  1183charge 0 multiplicity 1
 C        -0.116695        -0.397671        -0.051110
 C         1.348651         0.043291         0.094070
 C         2.068578         0.786305         1.349191
 C         3.344121         1.028103         0.403728
 O         4.513068         1.517982         0.946180
 C         2.635028         2.075542        -0.538378
 C         1.920583         0.844241        -1.063623
 C         3.192996         0.008555        -0.703868
 O         2.302157        -1.155159        -0.141462
 H        -0.375410        -0.900280         1.057533
 H        -0.739839         0.436780        -0.344762
 H        -0.074312        -1.232098        -0.713276
 H         1.514301         1.779339         1.436917
 H         2.170473         0.393755         2.265376
 H         4.855563         0.895893         1.536184
 H         1.979062         2.884468        -0.179592
 H         3.427124         2.404564        -1.247169
 H         1.327815         0.902650        -2.049050
 H         4.110680        -0.278331        -1.326601
