19
Iteration:  3488charge 0 multiplicity 1
 C        -0.052639        -0.417757         0.213682
 C         1.375406        -0.034730         0.111858
 C         2.106497         0.654157         1.259536
 C         3.270440         1.156978         0.436180
 O         4.500713         1.512467         0.936766
 C         2.551639         2.151187        -0.609163
 C         1.916058         0.780990        -1.165774
 C         3.217618         0.015912        -0.737961
 O         2.382911        -1.076605        -0.215178
 H        -0.270297        -1.525421         0.412949
 H        -0.592129         0.124967         1.006300
 H        -0.616660        -0.332159        -0.790787
 H         1.469645         1.385164         1.858136
 H         2.297169        -0.156448         1.941156
 H         4.401074         1.739755         1.868130
 H         1.790842         2.822218        -0.113156
 H         3.173121         2.818298        -1.241367
 H         1.450487         0.557885        -2.059561
 H         4.104691        -0.334183        -1.345324
