19
Iteration:  3492charge 0 multiplicity 1
 C        -0.050734        -0.400442         0.217756
 C         1.380197        -0.025596         0.074860
 C         2.135206         0.642688         1.256418
 C         3.245123         1.140536         0.432167
 O         4.509529         1.511744         0.949359
 C         2.546448         2.152414        -0.634969
 C         1.931811         0.782916        -1.150570
 C         3.173548         0.028976        -0.703720
 O         2.382642        -1.070876        -0.218961
 H        -0.215757        -1.441381         0.495058
 H        -0.578189         0.018956         1.050623
 H        -0.459750        -0.358072        -0.758307
 H         1.494092         1.357762         1.874347
 H         2.353321        -0.295936         2.003747
 H         4.360646         1.702418         1.905287
 H         1.729763         2.761642        -0.253429
 H         3.193770         2.766527        -1.282186
 H         1.414553         0.512444        -2.151044
 H         4.058910        -0.179594        -1.291828
