19
Iteration:  4606
 C        -0.085039        -0.360819         0.238741
 C         1.412218        -0.003406         0.091073
 C         2.172694         0.554538         1.244833
 C         3.273750         1.146002         0.424200
 O         4.532546         1.501974         0.946750
 C         2.482532         2.102563        -0.633601
 C         1.898995         0.787923        -1.152155
 C         3.182090         0.086984        -0.732146
 O         2.349703        -1.085640        -0.214902
 H        -0.581347         0.334517         1.002954
 H        -0.604377        -0.283428        -0.746617
 H        -0.197810        -1.438323         0.623241
 H         1.750868         1.362605         1.857842
 H         2.469312        -0.251840         1.856655
 H         4.334160         1.486017         1.981622
 H         1.812945         2.867706        -0.119480
 H         3.343708         2.497343        -1.172761
 H         1.406592         0.712215        -2.191539
 H         4.065062         0.039260        -1.391634
