19
Iteration:  2105charge 0 multiplicity 1
 C        -0.081968        -0.466711         0.198586
 C         1.331627         0.052051         0.085379
 C         2.111401         0.637327         1.281525
 C         3.245745         1.169501         0.406595
 O         4.414487         1.536187         1.049643
 C         2.645377         2.132012        -0.621091
 C         1.985336         0.812656        -1.194802
 C         3.150734         0.056537        -0.696676
 O         2.356001        -1.091833        -0.260241
 H        -0.183952        -1.181419         1.058282
 H        -0.884808         0.402786         0.485969
 H        -0.386495        -1.120844        -0.642846
 H         1.640143         1.499341         1.930118
 H         2.686084        -0.281052         1.887318
 H         4.982304         0.726055         1.411121
 H         2.082729         3.062394        -0.337713
 H         3.433362         2.409987        -1.361450
 H         1.547658         0.681913        -2.192156
 H         4.048239        -0.266266        -1.196587
