19
Iteration:  2300
 C        -0.047559        -0.530898         0.121427
 C         1.324955         0.005255         0.125378
 C         2.065574         0.741004         1.289284
 C         3.333942         1.102891         0.382000
 O         4.549687         1.501788         0.957372
 C         2.570120         2.099692        -0.557858
 C         1.917343         0.869149        -1.086406
 C         3.112805         0.024022        -0.738120
 O         2.374931        -1.036188        -0.208281
 H        -0.179458        -1.272809         0.880638
 H        -0.843267         0.319900         0.164383
 H        -0.252173        -0.985508        -0.850607
 H         1.401319         1.626409         1.447236
 H         2.204383         0.139409         2.315318
 H         4.818416         0.805605         1.666480
 H         1.900581         2.927519        -0.190368
 H         3.282078         2.624894        -1.239036
 H         1.518042         0.645981        -2.092339
 H         3.992319        -0.255546        -1.327664
