19
Iteration:  3248charge 0 multiplicity 1
 C         0.005285        -0.570738         0.254600
 C         1.394145         0.003301         0.137002
 C         1.986758         0.799220         1.260670
 C         3.314307         1.146376         0.390535
 O         4.515658         1.520995         1.021725
 C         2.602053         2.111161        -0.555652
 C         1.905123         0.844300        -1.091183
 C         3.122916         0.024814        -0.855860
 O         2.361167        -1.075955        -0.261762
 H         0.160517        -1.689651         0.580801
 H        -0.668243         0.083576         0.820431
 H        -0.554276        -0.730772        -0.803724
 H         1.480951         1.783821         1.319085
 H         2.098157         0.255050         2.171047
 H         4.693019         0.676069         1.415589
 H         2.063152         2.959496        -0.073756
 H         3.315163         2.486949        -1.299261
 H         1.450107         0.751958        -2.020831
 H         3.925946        -0.238132        -1.560417
