19
Iteration:  1181
 C        -0.121680        -0.392796        -0.047405
 C         1.346389         0.023134         0.103322
 C         2.071172         0.790870         1.353788
 C         3.326318         1.033192         0.402231
 O         4.506961         1.513289         0.939765
 C         2.639482         2.061781        -0.537569
 C         1.939257         0.841502        -1.059953
 C         3.186841         0.012739        -0.679133
 O         2.310565        -1.135234        -0.158353
 H        -0.413876        -0.859466         0.979167
 H        -0.745955         0.474513        -0.332103
 H        -0.085145        -1.242939        -0.679450
 H         1.493120         1.689764         1.461002
 H         2.228906         0.370744         2.287723
 H         4.904602         0.910343         1.525249
 H         2.019476         2.910609        -0.285515
 H         3.398146         2.420904        -1.244687
 H         1.335458         0.854571        -2.079748
 H         4.089519        -0.270271        -1.365576
