19
Iteration:   504
 C        -0.102953        -0.357578         0.067363
 C         1.321505         0.031060         0.087449
 C         1.921035         0.684821         1.293828
 C         3.272452         1.128890         0.432963
 O         4.543355         1.361944         0.983438
 C         2.675183         2.117135        -0.630042
 C         2.064706         0.840431        -1.150495
 C         3.198729        -0.026787        -0.629073
 O         2.358090        -1.086250        -0.157339
 H        -0.405292        -1.394600         0.395685
 H        -0.710841         0.327877         0.728455
 H        -0.445302        -0.380528        -0.919156
 H         1.245233         1.580970         1.740506
 H         2.160545        -0.037106         2.135019
 H         4.403487         2.313670         1.270824
 H         1.993994         2.907137        -0.246026
 H         3.419030         2.491658        -1.361349
 H         1.605932         0.760823        -2.183250
 H         4.067754        -0.252931        -1.249848
