19
Iteration:  2851
 C        -0.149248        -0.450553         0.227617
 C         1.341254        -0.063131         0.079747
 C         2.157282         0.575929         1.340486
 C         3.222838         1.259290         0.428451
 O         4.474181         1.481100         0.953845
 C         2.622430         2.175501        -0.594155
 C         1.918308         0.804841        -1.154202
 C         3.192401         0.031993        -0.763737
 O         2.415287        -1.016708        -0.270778
 H        -0.180570        -1.464284         0.654450
 H        -0.600581         0.194790         0.902496
 H        -0.678156        -0.560117        -0.720133
 H         1.427154         1.290211         1.794138
 H         2.623606        -0.300847         2.023243
 H         4.499088         1.345198         1.935919
 H         2.090581         3.044005        -0.305899
 H         3.422462         2.288666        -1.282017
 H         1.422878         0.783462        -2.135589
 H         4.039070        -0.297213        -1.384182
