19
Iteration:  1099charge 0 multiplicity 1
 C        -0.035555        -0.438537         0.233132
 C         1.322593         0.000112         0.027138
 C         2.070336         0.732829         1.177608
 C         3.301126         1.225268         0.440129
 O         4.444249         1.507390         1.125801
 C         2.767686         2.093720        -0.701399
 C         1.970157         0.860009        -1.088732
 C         3.110359        -0.090708        -0.737960
 O         2.304534        -1.124586        -0.247947
 H        -0.116101        -1.220080         0.902041
 H        -0.587339         0.395057         0.641751
 H        -0.639533        -0.543785        -0.696316
 H         1.472001         1.699889         1.376981
 H         2.010821         0.024440         2.109741
 H         4.420655         1.164190         2.084750
 H         2.138545         3.018817        -0.504665
 H         3.551753         2.146384        -1.510494
 H         1.722790         0.748985        -2.101841
 H         3.924766        -0.396723        -1.357924
