19
Iteration:   961
 C        -0.124745        -0.409615         0.238365
 C         1.388041        -0.061698         0.018118
 C         2.070016         0.750557         1.168457
 C         3.286498         1.191919         0.444970
 O         4.493257         1.452873         1.084031
 C         2.682114         2.072490        -0.615794
 C         1.998277         0.875981        -1.179855
 C         3.148772        -0.093661        -0.663430
 O         2.299996        -1.140153        -0.262361
 H        -0.213618        -0.714609         1.219068
 H        -0.680632         0.550171         0.004537
 H        -0.580432        -1.110653        -0.530127
 H         1.391935         1.725394         1.373936
 H         2.315033         0.229390         2.136075
 H         4.357860         2.145923         1.678330
 H         2.158118         2.922996        -0.214262
 H         3.563430         2.458523        -1.159029
 H         1.597943         0.932345        -2.150302
 H         3.970727        -0.313964        -1.248261
