19
Iteration:  1025
 C        -0.144713        -0.405102         0.125280
 C         1.297952         0.010344         0.099220
 C         1.989547         0.773574         1.288737
 C         3.275793         1.118746         0.429460
 O         4.578269         1.392873         0.975788
 C         2.617261         2.131110        -0.659498
 C         2.002051         0.832066        -1.151918
 C         3.171489         0.005878        -0.671446
 O         2.442527        -1.115460        -0.161578
 H        -0.588540        -0.888731         0.949888
 H        -0.693058         0.602966        -0.088141
 H        -0.426791        -0.914790        -0.904808
 H         1.457472         1.589553         1.550110
 H         2.136705         0.118274         2.172833
 H         4.438390         1.517540         1.956059
 H         1.965571         2.938928        -0.382036
 H         3.477629         2.282052        -1.239415
 H         1.419921         0.705099        -2.023826
 H         3.936182        -0.240847        -1.346197
