19
Iteration:   934
 C        -0.090714        -0.421622         0.127009
 C         1.360952         0.093392         0.061038
 C         1.970175         0.680628         1.311891
 C         3.275471         1.192396         0.415679
 O         4.489550         1.309308         1.024371
 C         2.685072         2.096426        -0.718467
 C         1.986062         0.794574        -1.173057
 C         3.156889        -0.009527        -0.676528
 O         2.372984        -0.990478        -0.125023
 H        -0.028848        -1.181412         1.007789
 H        -0.835304         0.355545         0.197593
 H        -0.400830        -0.863113        -0.816278
 H         1.446709         1.461356         1.690044
 H         2.205792        -0.000383         2.102738
 H         4.466111         2.051470         1.563339
 H         2.093674         2.884644        -0.204067
 H         3.534666         2.339465        -1.393756
 H         1.460593         0.654043        -2.174897
 H         4.090045        -0.168177        -1.341651
