19
Iteration:   763
 C        -0.090627        -0.435891         0.002780
 C         1.331634         0.061893         0.081502
 C         2.041154         0.762172         1.272002
 C         3.257512         1.153169         0.393020
 O         4.569819         1.342778         0.946987
 C         2.671775         2.198884        -0.582569
 C         1.969521         0.831937        -1.141658
 C         3.142305        -0.075577        -0.640530
 O         2.301243        -1.071602        -0.094926
 H        -0.221157        -1.063233         0.859939
 H        -0.890374         0.338287        -0.241772
 H         0.134160        -1.305382        -0.773668
 H         1.507532         1.665259         1.727828
 H         2.222486         0.183189         2.221821
 H         4.418781         1.808050         1.765609
 H         2.065165         3.014575        -0.101855
 H         3.399540         2.545342        -1.347542
 H         1.376568         0.746270        -2.108049
 H         4.130415        -0.480428        -1.061544
