19
Iteration:   804
 C        -0.131338        -0.303378         0.192999
 C         1.377565         0.020085         0.049511
 C         2.020822         0.687341         1.189840
 C         3.298196         1.165596         0.411857
 O         4.462040         1.413153         1.054054
 C         2.657698         2.114353        -0.610636
 C         1.947520         0.815715        -1.165419
 C         3.248425        -0.038729        -0.705241
 O         2.386989        -1.161382        -0.205391
 H        -0.634016        -0.558515         1.156326
 H        -0.748781         0.546282        -0.063776
 H        -0.329304        -1.181217        -0.445257
 H         1.408415         1.624895         1.598583
 H         2.234238         0.034181         2.126632
 H         4.302507         1.948300         1.952668
 H         2.196935         3.030925        -0.294870
 H         3.378281         2.519588        -1.297266
 H         1.449196         0.708091        -2.162114
 H         4.096026        -0.488307        -1.318380
