19
Iteration:  1468
 C        -0.059338        -0.392995         0.078283
 C         1.362144        -0.082484         0.108181
 C         1.938712         0.707078         1.260802
 C         3.309902         1.135089         0.403434
 O         4.565195         1.490712         0.926754
 C         2.619192         2.123125        -0.557051
 C         1.915678         0.859868        -1.094975
 C         3.186955        -0.001536        -0.683222
 O         2.368735        -1.128356        -0.156418
 H        -0.212253        -1.407508         0.449976
 H        -0.613437         0.337138         0.528286
 H        -0.440050        -0.382494        -0.885060
 H         1.507162         1.806728         1.530151
 H         2.060592         0.086974         2.137874
 H         4.498396         1.065924         1.738101
 H         2.150104         3.062558        -0.322164
 H         3.387860         2.475080        -1.263331
 H         1.304174         0.906792        -1.989219
 H         4.098765        -0.177748        -1.246453
