19
Iteration:  2018
 C        -0.013028        -0.584953         0.080024
 C         1.311527         0.084811         0.088043
 C         2.126765         0.708952         1.303557
 C         3.276051         1.189879         0.418782
 O         4.467846         1.455636         0.951784
 C         2.662812         2.201615        -0.598501
 C         1.948930         0.866634        -1.214823
 C         3.130724        -0.013756        -0.684822
 O         2.314022        -1.108927        -0.112653
 H        -0.051323        -1.364972         0.764488
 H        -0.635184         0.121278         0.709241
 H        -0.281003        -0.693591        -0.940452
 H         1.683962         1.616494         1.920228
 H         2.421570        -0.239315         1.657135
 H         4.523607         1.163458         1.890600
 H         1.851431         2.827791        -0.191523
 H         3.337946         2.631787        -1.347457
 H         1.321862         0.838899        -2.067871
 H         3.950071        -0.131658        -1.340270
