19
Iteration:  2537charge 0 multiplicity 1
 C        -0.050591        -0.448255         0.166510
 C         1.365358         0.015307         0.090096
 C         2.142346         0.578012         1.258881
 C         3.279146         1.168893         0.385178
 O         4.503142         1.519548         0.976336
 C         2.552462         2.131284        -0.567464
 C         1.913334         0.860807        -1.084203
 C         3.134363         0.025245        -0.734945
 O         2.367317        -1.105223        -0.252000
 H        -0.196205        -0.738782         1.231456
 H        -0.610316         0.437052        -0.151970
 H        -0.444987        -1.184289        -0.560755
 H         1.750162         1.467015         1.965452
 H         2.384705        -0.290969         1.922221
 H         4.457308         1.117663         1.783509
 H         1.909400         2.967112        -0.250897
 H         3.258359         2.747241        -1.167595
 H         1.373593         0.687457        -2.064096
 H         4.114039        -0.060156        -1.282329
