19
Iteration:  3509charge 0 multiplicity 1
 C        -0.005609        -0.424994         0.228174
 C         1.357231         0.022812         0.082613
 C         2.158550         0.600243         1.300551
 C         3.241355         1.242749         0.422406
 O         4.477167         1.479160         1.008753
 C         2.477169         2.102006        -0.683447
 C         1.916093         0.835364        -1.189280
 C         3.203724         0.049388        -0.699356
 O         2.367587        -1.120696        -0.246975
 H        -0.003308        -1.475168         0.727126
 H        -0.448237         0.375111         0.876590
 H        -0.779892        -0.609943        -0.619766
 H         1.658135         1.288857         2.001736
 H         2.550852        -0.128386         1.866242
 H         4.345895         1.552649         1.946340
 H         2.030432         3.100384        -0.466522
 H         3.263907         2.345587        -1.428834
 H         1.547815         0.753194        -2.143041
 H         4.094375        -0.313467        -1.304885
