19
Iteration:  4993
 C         0.028837        -0.609006         0.258795
 C         1.424896         0.015369         0.107145
 C         2.091407         0.763294         1.251104
 C         3.272527         1.093484         0.392589
 O         4.477475         1.377794         1.050657
 C         2.527236         2.177496        -0.574482
 C         1.838026         0.926195        -1.109839
 C         3.085505         0.072817        -0.786878
 O         2.403982        -1.008624        -0.256554
 H        -0.623796         0.100769         0.793604
 H        -0.543487        -0.846587        -0.660094
 H         0.042017        -1.606339         0.774771
 H         1.701446         1.710600         1.695255
 H         2.488442         0.018403         2.066379
 H         5.061040         0.937092         0.490662
 H         2.144447         3.195072        -0.355363
 H         3.270792         2.430992        -1.391957
 H         1.176840         0.816803        -1.967355
 H         3.913874        -0.181883        -1.418873
