19
Iteration:  3767
 C        -0.070223        -0.497765         0.168937
 C         1.386353        -0.052783         0.107525
 C         2.105675         0.763453         1.223053
 C         3.291015         1.168745         0.424718
 O         4.505593         1.582969         1.072308
 C         2.605828         2.101507        -0.560255
 C         1.856677         0.808262        -1.117606
 C         3.143537        -0.025659        -0.774439
 O         2.349540        -1.098812        -0.223591
 H        -0.151678        -1.056062         1.205334
 H        -0.767644         0.378881        -0.068981
 H        -0.175701        -1.304777        -0.514550
 H         1.588144         1.613388         1.384524
 H         2.281408         0.226251         2.181774
 H         5.240907         1.175430         0.556235
 H         2.062500         2.863015         0.021149
 H         3.292933         2.601442        -1.255925
 H         1.245271         0.609411        -1.995435
 H         3.832388        -0.285218        -1.561568
