19
Iteration:  2660
 C        -0.043588        -0.531554         0.273466
 C         1.334523        -0.027358         0.043442
 C         2.072978         0.761987         1.251679
 C         3.313033         1.162437         0.394565
 O         4.572979         1.520537         1.063238
 C         2.586076         2.107585        -0.506167
 C         1.955464         0.822314        -1.167767
 C         3.113904        -0.006786        -0.857016
 O         2.325982        -1.092297        -0.271604
 H         0.162288        -1.494071         0.564328
 H        -0.597789         0.172999         0.912181
 H        -0.608296        -0.461768        -0.607459
 H         1.405383         1.751440         1.361536
 H         2.222243         0.074119         2.042805
 H         4.264534         1.415278         1.979096
 H         2.029749         2.793754         0.096181
 H         3.233191         2.514227        -1.282227
 H         1.633405         0.947991        -2.174895
 H         3.846925        -0.277092        -1.559439
