19
Iteration:  2050charge 0 multiplicity 1
 C        -0.095833        -0.525914         0.215437
 C         1.369179        -0.047487         0.128604
 C         2.024259         0.700018         1.252306
 C         3.306950         1.129243         0.384238
 O         4.497979         1.543842         1.024999
 C         2.682865         2.109710        -0.662988
 C         1.958313         0.843052        -1.096495
 C         3.201374         0.060929        -0.719811
 O         2.344486        -1.111780        -0.300087
 H        -0.295473        -1.539833         0.493408
 H        -0.626192         0.341275         0.799555
 H        -0.655757        -0.329430        -0.703193
 H         1.500133         1.619501         1.706643
 H         1.959779         0.115547         2.261191
 H         4.520937         1.363813         2.044572
 H         2.020167         2.906427        -0.228687
 H         3.352207         2.536430        -1.438111
 H         1.383199         0.745612        -1.971649
 H         3.962465        -0.155864        -1.395806
