19
Iteration:  4784
 C        -0.089662        -0.405594         0.342909
 C         1.404770        -0.066745         0.083744
 C         2.118612         0.678498         1.233643
 C         3.258277         1.130116         0.389794
 O         4.490690         1.430853         1.064184
 C         2.545097         2.113091        -0.605212
 C         1.909789         0.831225        -1.137512
 C         3.167677         0.005278        -0.817861
 O         2.398871        -1.067382        -0.281399
 H        -0.504711         0.507001         0.641635
 H        -0.625271        -0.563000        -0.573632
 H        -0.349105        -1.344834         0.886047
 H         1.652927         1.594413         1.555224
 H         2.369008        -0.077969         1.978899
 H         4.782032         2.406370         0.886008
 H         2.017436         2.901951        -0.054783
 H         3.266807         2.643688        -1.230666
 H         1.225322         0.783481        -1.988514
 H         4.118856        -0.353257        -1.310489
