19
Iteration:  2386charge 0 multiplicity 1
 C        -0.049552        -0.455379         0.208639
 C         1.399317        -0.012447         0.060844
 C         2.106745         0.588470         1.304336
 C         3.280983         1.135498         0.401268
 O         4.481674         1.564368         1.014290
 C         2.598875         2.143889        -0.612599
 C         1.918780         0.865234        -1.104653
 C         3.201821         0.056613        -0.769567
 O         2.299461        -1.092114        -0.265117
 H        -0.429780        -0.728913         1.172327
 H        -0.723950         0.450811         0.128106
 H        -0.097981        -1.299505        -0.465433
 H         1.476465         1.342780         1.856888
 H         2.431207        -0.230092         1.808639
 H         4.489761         1.123959         1.800049
 H         1.939980         2.886197        -0.150575
 H         3.418403         2.482122        -1.277754
 H         1.467036         0.652005        -2.116375
 H         4.006281        -0.337355        -1.417868
