19
Iteration:  4870charge 0 multiplicity 1
 C        -0.022793        -0.529457         0.241287
 C         1.388627        -0.067413         0.124767
 C         2.095603         0.675970         1.268370
 C         3.305375         1.125709         0.388993
 O         4.535029         1.490372         0.896031
 C         2.569565         2.134028        -0.552596
 C         1.887197         0.943450        -1.123633
 C         3.090121         0.031364        -0.788650
 O         2.327111        -1.039505        -0.217524
 H        -0.802038         0.246261         0.298056
 H        -0.161341        -1.170989        -0.640985
 H        -0.060320        -1.252115         1.151008
 H         1.530812         1.623957         1.701027
 H         2.384377         0.045966         2.147505
 H         4.615027         0.925367         1.658054
 H         2.206414         3.012876         0.054372
 H         3.252572         2.598359        -1.305604
 H         1.356479         0.989586        -2.108405
 H         4.076900        -0.239749        -1.332639
