19
Iteration:  4183
 C         0.003267        -0.504341         0.261723
 C         1.383145         0.003539         0.075724
 C         2.026216         0.739491         1.286722
 C         3.246408         1.177618         0.397908
 O         4.490943         1.408358         0.966750
 C         2.610081         2.123497        -0.675859
 C         1.885055         0.846512        -1.214650
 C         3.138319         0.058850        -0.641644
 O         2.406460        -1.019696        -0.190162
 H         0.053563        -1.431808         0.893546
 H        -0.736866         0.335065         0.514624
 H        -0.403314        -0.871062        -0.792068
 H         1.403562         1.596790         1.714829
 H         2.372416         0.205372         2.148508
 H         4.728911         0.644252         1.397990
 H         1.993501         2.938639        -0.201582
 H         3.257401         2.384549        -1.529998
 H         1.280996         0.591955        -2.076910
 H         4.141637        -0.194005        -1.185831
