19
Iteration:  3585
 C        -0.083265        -0.590536         0.232545
 C         1.337431        -0.044698         0.040366
 C         2.114395         0.710791         1.353713
 C         3.238944         1.161751         0.428862
 O         4.458182         1.457577         0.970740
 C         2.593117         2.224409        -0.670101
 C         1.940938         0.911656        -1.191042
 C         3.179973         0.072577        -0.709187
 O         2.383908        -1.043278        -0.160434
 H        -0.632044        -0.758382         1.222101
 H        -0.905646         0.019105        -0.157351
 H        -0.048964        -1.560250        -0.414129
 H         1.705536         1.453274         2.012913
 H         2.421817        -0.132530         1.966354
 H         4.977731         0.594495         0.909160
 H         2.027308         3.118270        -0.328110
 H         3.403079         2.527514        -1.344006
 H         1.546899         0.727952        -2.147461
 H         4.128014        -0.205998        -1.314780
