19
Iteration:  1115charge 0 multiplicity 1
 C        -0.073985        -0.336555         0.251489
 C         1.424996        -0.035189         0.076199
 C         1.983529         0.809820         1.208617
 C         3.315675         1.097124         0.397239
 O         4.435854         1.578502         1.160887
 C         2.719686         2.113801        -0.614778
 C         2.015804         0.809146        -1.253007
 C         3.177497        -0.120489        -0.785694
 O         2.282594        -1.175988        -0.268064
 H        -0.164831        -1.199632         1.061660
 H        -0.682626         0.540710         0.663417
 H        -0.541224        -0.764713        -0.679200
 H         1.391742         1.663653         1.408323
 H         2.260706         0.370266         2.113401
 H         4.547082         0.879089         1.946078
 H         2.080522         2.849821        -0.134962
 H         3.468061         2.504035        -1.292339
 H         1.264170         0.802522        -2.123747
 H         4.083013        -0.384799        -1.423869
