19
Iteration:  4737charge 0 multiplicity 1
 C        -0.084088        -0.460386         0.161073
 C         1.356129        -0.015742         0.127901
 C         2.154361         0.612069         1.371715
 C         3.321229         1.117566         0.408878
 O         4.536261         1.520067         0.888625
 C         2.625854         2.092439        -0.521341
 C         1.949681         0.873744        -1.127114
 C         3.137244         0.014942        -0.776410
 O         2.260385        -1.090473        -0.231838
 H        -0.693224         0.397138        -0.059772
 H        -0.467195        -1.233629        -0.490015
 H        -0.261055        -0.846715         1.098441
 H         1.672432         1.420699         1.994634
 H         2.641312        -0.157114         1.903448
 H         4.321364         2.383105         1.299963
 H         1.916490         2.814202        -0.054375
 H         3.160155         2.679383        -1.232512
 H         1.447400         0.856289        -2.059344
 H         3.952542        -0.254561        -1.460066
