19
Iteration:  3198
 C        -0.051203        -0.506110         0.219687
 C         1.384644         0.053604         0.065182
 C         2.174684         0.576982         1.300855
 C         3.261535         1.190517         0.460454
 O         4.490268         1.475368         0.967834
 C         2.543618         2.147643        -0.601779
 C         1.920652         0.870802        -1.154836
 C         3.157396         0.003508        -0.758940
 O         2.346490        -1.042708        -0.246830
 H        -0.103731        -1.069727         1.097075
 H        -0.789567         0.296166         0.052597
 H        -0.330509        -1.094204        -0.567748
 H         1.701546         1.445918         1.911096
 H         2.697329        -0.289151         1.894325
 H         4.477455         1.716289         1.925084
 H         1.750867         2.812495        -0.273143
 H         3.238876         2.601161        -1.334165
 H         1.219275         0.664253        -2.031902
 H         4.015160        -0.292264        -1.392765
