19
Iteration:  4226charge 0 multiplicity 1
 C        -0.022502        -0.594562         0.192238
 C         1.318072        -0.002678         0.144883
 C         2.074535         0.766873         1.242373
 C         3.316105         1.107034         0.319381
 O         4.517270         1.653467         1.088947
 C         2.679163         2.088217        -0.665825
 C         1.866464         0.858015        -1.156622
 C         3.155847        -0.060198        -0.755912
 O         2.253141        -1.057462        -0.194368
 H         0.007656        -1.652714         0.511343
 H        -0.694488        -0.088518         0.941124
 H        -0.738940        -0.440857        -0.625947
 H         1.690703         1.608820         1.894337
 H         2.252281         0.060482         1.999532
 H         5.142090         0.955564         1.200231
 H         2.247973         3.011099        -0.167904
 H         3.535949         2.361944        -1.320006
 H         1.395157         0.874070        -2.146552
 H         4.134878        -0.415484        -1.257293
