19
Iteration:  2843
 C        -0.079349        -0.485239         0.242566
 C         1.342686        -0.028785         0.081319
 C         2.152034         0.601399         1.296836
 C         3.195400         1.178726         0.432585
 O         4.470433         1.472996         0.967462
 C         2.607715         2.160346        -0.627777
 C         1.955830         0.858254        -1.150303
 C         3.197715         0.018810        -0.762387
 O         2.390062        -1.027766        -0.245965
 H        -0.116477        -1.467819         0.783432
 H        -0.762920         0.292913         0.718573
 H        -0.708948        -0.427962        -0.729916
 H         1.671921         1.265867         1.907988
 H         2.575138        -0.286853         1.916525
 H         4.435865         1.343061         1.996904
 H         1.995397         3.023850        -0.267495
 H         3.238591         2.638736        -1.427102
 H         1.379746         0.816497        -2.055043
 H         4.021542        -0.208480        -1.359330
