19
Iteration:  4575
 C        -0.054292        -0.369716         0.172828
 C         1.448506        -0.053242         0.126693
 C         2.161693         0.671793         1.247034
 C         3.284424         1.141556         0.394253
 O         4.520006         1.496715         0.946405
 C         2.449944         2.179908        -0.537614
 C         1.897859         0.813826        -1.073179
 C         3.158526         0.018572        -0.817453
 O         2.374683        -1.162075        -0.212777
 H        -0.543556         0.548099         0.444859
 H        -0.558200        -0.635083        -0.748667
 H        -0.288031        -1.231577         0.907734
 H         1.644662         1.610951         1.570026
 H         2.293143         0.019996         2.058123
 H         4.625857         1.064225         1.738997
 H         1.757246         2.872051        -0.002479
 H         3.193984         2.731527        -1.080643
 H         1.393157         0.712185        -2.018769
 H         3.971145        -0.129020        -1.573913
