19
Iteration:  2421charge 0 multiplicity 1
 C        -0.081621        -0.491725         0.114545
 C         1.408500        -0.046000         0.151126
 C         2.041554         0.661782         1.285077
 C         3.270403         1.169666         0.398595
 O         4.528753         1.503359         0.947678
 C         2.591621         2.150499        -0.601402
 C         1.884195         0.908848        -1.086417
 C         3.189730         0.031736        -0.761497
 O         2.376742        -1.113891        -0.174630
 H        -0.164521        -1.355587         0.692856
 H        -0.776572         0.395957         0.379419
 H        -0.525837        -0.627422        -0.851799
 H         1.450017         1.428140         1.761146
 H         2.363546         0.015074         2.113163
 H         4.688352         0.915867         1.619154
 H         2.033854         2.989262        -0.088141
 H         3.251447         2.704581        -1.312470
 H         1.515358         0.698530        -2.076614
 H         3.986026        -0.258166        -1.417812
