19
Iteration:  2051charge 0 multiplicity 1
 C        -0.099407        -0.525204         0.223233
 C         1.372161        -0.047034         0.120190
 C         2.029515         0.702609         1.250937
 C         3.305214         1.133939         0.383284
 O         4.497140         1.546229         1.026593
 C         2.682362         2.109280        -0.661621
 C         1.958262         0.841795        -1.090480
 C         3.196183         0.059273        -0.721137
 O         2.348728        -1.122117        -0.304962
 H        -0.319369        -1.528763         0.474061
 H        -0.612782         0.338346         0.776001
 H        -0.661413        -0.335244        -0.674767
 H         1.494298         1.653023         1.718562
 H         1.936660         0.168879         2.220489
 H         4.511392         1.350222         2.063909
 H         2.037279         2.897262        -0.204283
 H         3.365974         2.569642        -1.406483
 H         1.378469         0.729902        -1.976680
 H         3.970483        -0.174435        -1.407928
