19
Iteration:  1746charge 0 multiplicity 1
 C        -0.157403        -0.442946         0.103152
 C         1.393173        -0.035281         0.124419
 C         2.046806         0.632366         1.349950
 C         3.226793         1.112729         0.506544
 O         4.533132         1.485673         0.905199
 C         2.582538         2.178284        -0.650297
 C         1.949611         0.838374        -1.163677
 C         3.215614         0.054542        -0.655482
 O         2.369301        -1.062273        -0.247024
 H        -0.377077        -0.732510         1.135533
 H        -0.695292         0.478009        -0.345193
 H        -0.482401        -1.231436        -0.615612
 H         1.575602         1.377862         2.073746
 H         2.547903        -0.067522         2.054331
 H         4.645990         1.059733         1.810465
 H         2.081615         3.115395        -0.254148
 H         3.505640         2.346272        -1.280809
 H         1.592494         0.813705        -2.104587
 H         4.038842        -0.234962        -1.196759
