19
Iteration:  2638charge 0 multiplicity 1
 C        -0.036237        -0.547452         0.284483
 C         1.354489         0.005300         0.097254
 C         2.058900         0.635889         1.240904
 C         3.222022         1.131738         0.409620
 O         4.454279         1.454615         0.998953
 C         2.660587         2.174241        -0.690528
 C         1.929546         0.934592        -1.152266
 C         3.197469         0.058988        -0.700898
 O         2.364932        -1.065880        -0.283084
 H         0.122360        -1.490894         0.704848
 H        -0.543120         0.219375         0.911919
 H        -0.650944        -0.549245        -0.581604
 H         1.532363         1.631174         1.664357
 H         2.425267        -0.091845         1.917957
 H         4.399918         1.119984         1.948706
 H         2.090935         2.967243        -0.287602
 H         3.574372         2.380899        -1.232377
 H         1.206390         0.821718        -1.927955
 H         4.051941        -0.191725        -1.255194
