19
Iteration:  1751charge 0 multiplicity 1
 C        -0.165065        -0.431163         0.104949
 C         1.372262        -0.043301         0.085220
 C         2.004093         0.671749         1.329848
 C         3.257025         1.099776         0.458278
 O         4.524293         1.496421         0.906625
 C         2.584677         2.175101        -0.600978
 C         1.977507         0.849993        -1.093674
 C         3.199039         0.003178        -0.648575
 O         2.412790        -1.058023        -0.265548
 H        -0.438565        -0.673013         1.134295
 H        -0.595302         0.480009        -0.207979
 H        -0.537583        -1.248985        -0.514227
 H         1.554767         1.436408         1.919303
 H         2.451964        -0.120508         2.111919
 H         4.703620         1.062798         1.754269
 H         2.126615         3.080250        -0.261665
 H         3.420305         2.495684        -1.202600
 H         1.399825         0.551479        -2.110953
 H         4.126476        -0.225891        -1.317777
