19
Iteration:  3418
 C         0.004985        -0.620536         0.266062
 C         1.359520         0.017561         0.088477
 C         2.054199         0.678526         1.261155
 C         3.234677         1.199069         0.360884
 O         4.496366         1.318104         1.017257
 C         2.593487         2.222458        -0.647966
 C         1.915034         0.928889        -1.208132
 C         3.131796         0.088433        -0.713374
 O         2.390390        -1.062610        -0.197797
 H        -0.122331        -1.399024         1.024231
 H        -0.838212         0.219500         0.513916
 H        -0.285441        -1.192187        -0.641076
 H         1.684610         1.476865         1.745509
 H         2.315070        -0.042959         1.992028
 H         4.625632         2.127361         1.429538
 H         2.119776         3.086772        -0.139896
 H         3.415511         2.665341        -1.228251
 H         1.336123         0.623783        -2.172230
 H         3.995683        -0.076852        -1.334313
