19
Iteration:    34charge 0 multiplicity 1
 C        -0.143461        -0.307289        -0.056609
 C         1.336219         0.070656         0.124852
 C         2.041853         0.778438         1.233563
 C         3.332618         1.121460         0.474106
 O         4.600676         1.365099         0.973450
 C         2.634913         2.034719        -0.626647
 C         2.034509         0.755935        -1.127412
 C         3.124056        -0.038535        -0.597538
 O         2.262556        -1.085334        -0.087540
 H        -0.710887        -0.880017         0.676458
 H        -0.713706         0.595203        -0.316454
 H        -0.064414        -0.839257        -0.962425
 H         1.528924         1.651021         1.644964
 H         2.268008         0.094612         2.039513
 H         4.557402         2.129197         1.590448
 H         1.925443         2.721827        -0.188264
 H         3.342535         2.532096        -1.258727
 H         1.722840         0.651702        -2.156228
 H         3.965226        -0.373191        -1.139668
