19
Iteration:   545charge 0 multiplicity 1
 C        -0.153054        -0.369477         0.236609
 C         1.402236         0.070282         0.072013
 C         2.060003         0.689436         1.216107
 C         3.311741         1.029184         0.423465
 O         4.410905         1.420488         1.201446
 C         2.713961         2.154030        -0.742361
 C         2.066687         0.850890        -1.192390
 C         3.178467        -0.063894        -0.760354
 O         2.301409        -1.076683        -0.237950
 H        -0.135666        -1.259759         0.870304
 H        -0.864348         0.346552         0.718019
 H        -0.574206        -0.626224        -0.835405
 H         1.495927         1.584619         1.596144
 H         2.245834        -0.057336         1.996927
 H         4.417739         2.413853         1.438925
 H         1.903490         2.804607        -0.339966
 H         3.517983         2.531433        -1.411930
 H         1.564719         0.596145        -2.048000
 H         4.031854        -0.412640        -1.246617
