19
Iteration:  3046charge 0 multiplicity 1
 C        -0.022971        -0.491776         0.262375
 C         1.363219         0.015834         0.070024
 C         2.151240         0.635191         1.251724
 C         3.270558         1.191865         0.380176
 O         4.515073         1.403538         1.017182
 C         2.467077         2.156155        -0.600754
 C         1.983258         0.855333        -1.178894
 C         3.173250        -0.002685        -0.779889
 O         2.340047        -1.018167        -0.217267
 H        -0.083956        -1.502893         0.751332
 H        -0.735922         0.032567         0.997939
 H        -0.434338        -0.636552        -0.745625
 H         1.503101         1.379279         1.778144
 H         2.400890         0.006709         1.927062
 H         4.398466         1.665588         1.930680
 H         1.771509         2.904564        -0.173434
 H         3.173197         2.730200        -1.233901
 H         1.666752         0.916140        -2.237026
 H         3.993417        -0.227763        -1.467567
