19
Iteration:  1190
 C        -0.067394        -0.437235        -0.007115
 C         1.350865         0.074592         0.088352
 C         2.037546         0.793346         1.272780
 C         3.352975         1.072213         0.425256
 O         4.546946         1.524186         0.976375
 C         2.633373         2.111295        -0.541985
 C         1.900533         0.862233        -1.089868
 C         3.167627        -0.051382        -0.766356
 O         2.287101        -1.175017        -0.098548
 H        -0.351839        -0.830134         0.888167
 H        -0.817473         0.331746        -0.332877
 H        -0.114957        -1.155317        -0.845348
 H         1.734907         1.779748         1.471952
 H         2.024496         0.209803         2.286753
 H         4.774111         0.870469         1.597461
 H         2.082363         2.798982         0.090646
 H         3.356803         2.481917        -1.261563
 H         1.289971         0.934765        -2.048076
 H         4.129661        -0.355774        -1.273831
