19
Iteration:  4896charge 0 multiplicity 1
 C        -0.090659        -0.372179         0.274030
 C         1.345288        -0.016496         0.081038
 C         2.145218         0.627069         1.271935
 C         3.283225         1.225522         0.398107
 O         4.575271         1.422863         0.927349
 C         2.438089         2.173655        -0.521303
 C         1.873990         0.763282        -1.120228
 C         3.158358        -0.001566        -0.777076
 O         2.435675        -1.076568        -0.302339
 H        -0.735662         0.500443         0.172714
 H        -0.361686        -1.110381        -0.498356
 H        -0.179487        -0.909526         1.226854
 H         1.662567         1.322442         1.923250
 H         2.628214        -0.210040         1.885101
 H         4.351771         1.719802         1.773163
 H         1.874047         2.966705        -0.015070
 H         3.128709         2.780695        -1.163364
 H         1.510584         0.594594        -2.136477
 H         4.066552        -0.235773        -1.267832
