19
Iteration:    86charge 0 multiplicity 1
 C        -0.140679        -0.344446         0.188998
 C         1.363682         0.042327         0.061495
 C         2.007745         0.791895         1.205725
 C         3.388412         1.071463         0.396752
 O         4.411746         1.455775         1.240622
 C         2.745920         2.132237        -0.665920
 C         2.010369         0.751355        -1.165298
 C         3.201944        -0.071631        -0.710218
 O         2.231809        -1.086904        -0.254744
 H        -0.324731        -1.003767         0.998923
 H        -0.760731         0.520584         0.141984
 H        -0.470945        -1.053160        -0.668671
 H         1.497287         1.727198         1.343524
 H         2.124046         0.219934         2.110638
 H         5.312367         1.420069         0.746305
 H         2.204901         2.998738        -0.209709
 H         3.487321         2.525110        -1.412600
 H         1.600849         0.561541        -2.126184
 H         4.055929        -0.544775        -1.237527
