19
Iteration:  2080
 C         0.004340        -0.427603         0.264471
 C         1.394881         0.012724         0.037864
 C         2.043981         0.662643         1.209808
 C         3.292861         1.139956         0.384698
 O         4.416253         1.569052         1.114816
 C         2.604312         2.096779        -0.627232
 C         1.996732         0.842181        -1.187652
 C         3.178989        -0.020692        -0.794144
 O         2.318629        -1.090879        -0.224420
 H        -0.048338        -1.412872         0.811439
 H        -0.471204         0.391088         0.896251
 H        -0.658246        -0.629708        -0.643723
 H         1.575913         1.459529         1.694420
 H         2.302343        -0.194841         1.985668
 H         4.709494         0.863827         1.769431
 H         1.919408         2.863029        -0.192582
 H         3.252422         2.569363        -1.387198
 H         1.408034         0.929967        -2.092866
 H         4.017226        -0.401987        -1.355854
