19
Iteration:  4063
 C        -0.006799        -0.508158         0.271231
 C         1.396374        -0.001147         0.117131
 C         2.053969         0.822435         1.154831
 C         3.260834         1.128254         0.390386
 O         4.522288         1.464146         1.034997
 C         2.506237         2.141854        -0.559684
 C         1.942886         0.826127        -1.165341
 C         3.118424         0.003923        -0.766775
 O         2.419948        -1.092423        -0.222847
 H        -0.368411        -0.500462         1.334219
 H        -0.567688         0.059023        -0.532482
 H        -0.068807        -1.531091        -0.163223
 H         1.429334         1.680810         1.546577
 H         2.211413         0.262828         2.103476
 H         4.817686         0.567207         1.525481
 H         1.790522         2.889129        -0.137424
 H         3.201285         2.544054        -1.310773
 H         1.239743         1.125007        -1.968618
 H         3.940109        -0.247996        -1.504921
