19
Iteration:  2849charge 0 multiplicity 1
 C        -0.132414        -0.461774         0.229450
 C         1.329346        -0.062451         0.081880
 C         2.172469         0.568468         1.339689
 C         3.205030         1.247796         0.431880
 O         4.471100         1.475497         0.961663
 C         2.624290         2.175470        -0.599636
 C         1.928803         0.807909        -1.154227
 C         3.201145         0.021820        -0.761076
 O         2.411937        -1.005436        -0.265734
 H        -0.140614        -1.450832         0.670386
 H        -0.693507         0.241512         0.825725
 H        -0.702553        -0.495140        -0.658184
 H         1.413186         1.339376         1.818816
 H         2.600808        -0.257408         1.942845
 H         4.487710         1.356791         1.852420
 H         2.069916         3.052897        -0.292143
 H         3.383305         2.378513        -1.356008
 H         1.394512         0.806952        -2.139080
 H         4.075951        -0.302266        -1.431231
