19
Iteration:  1044
 C        -0.042251        -0.400322         0.046359
 C         1.372364         0.007645         0.045460
 C         1.986495         0.835415         1.202398
 C         3.301467         1.146356         0.432143
 O         4.584251         1.376338         0.960205
 C         2.617360         2.085322        -0.610331
 C         1.908197         0.811647        -1.100333
 C         3.165879        -0.021012        -0.646959
 O         2.308747        -1.079621        -0.120753
 H        -0.061527        -1.198670         0.804342
 H        -0.776712         0.316633         0.400394
 H        -0.306082        -0.961960        -0.918108
 H         1.407797         1.819693         1.462836
 H         2.053579         0.208065         2.164554
 H         4.603903         1.449314         2.006980
 H         2.083813         2.846736         0.060918
 H         3.264705         2.568540        -1.429664
 H         1.540291         0.700886        -2.127995
 H         4.149127        -0.326930        -1.094936
