19
Iteration:   614charge 0 multiplicity 1
 C        -0.102647        -0.442642         0.015333
 C         1.323944         0.019192         0.058875
 C         2.046053         0.825719         1.232644
 C         3.257671         1.161893         0.434306
 O         4.570586         1.293422         0.967844
 C         2.634084         2.129309        -0.577118
 C         1.982269         0.811620        -1.162799
 C         3.142532         0.005101        -0.648318
 O         2.354276        -1.048568        -0.070614
 H        -0.260087        -0.756604         1.121860
 H        -0.704144         0.406321        -0.420040
 H        -0.101879        -1.152006        -0.735140
 H         1.440121         1.805340         1.518087
 H         2.193178        -0.024755         1.961213
 H         4.552936         1.510599         1.867461
 H         1.832294         2.721903        -0.066177
 H         3.311401         2.757784        -1.194558
 H         1.440274         0.745308        -2.191843
 H         4.054137        -0.306253        -1.260241
