19
Iteration:  4036charge 0 multiplicity 1
 C        -0.065755        -0.635367         0.191729
 C         1.324112         0.011370         0.124193
 C         2.024255         0.742370         1.242947
 C         3.243260         1.169569         0.371232
 O         4.500533         1.452397         1.001004
 C         2.669515         2.176897        -0.694185
 C         1.932188         0.862877        -1.110731
 C         3.106569         0.053784        -0.652416
 O         2.413212        -0.996331        -0.191845
 H        -0.169748        -0.785153         1.335720
 H        -0.831630         0.105936        -0.101059
 H        -0.208492        -1.569547        -0.394628
 H         1.494164         1.433184         1.822882
 H         2.439276         0.004084         1.970655
 H         5.121679         0.587574         0.961975
 H         2.033803         3.004539        -0.395098
 H         3.450530         2.446080        -1.425317
 H         1.231488         0.817331        -1.930780
 H         3.966607        -0.155541        -1.273825
