19
Iteration:  4124charge 0 multiplicity 1
 C        -0.039682        -0.433135         0.214647
 C         1.391678        -0.041636         0.079768
 C         2.108814         0.628920         1.352271
 C         3.328984         1.132029         0.407546
 O         4.509232         1.641154         0.986357
 C         2.595034         2.106301        -0.564562
 C         1.957447         0.805173        -1.114992
 C         3.146619        -0.026645        -0.801596
 O         2.269236        -1.139855        -0.296501
 H        -0.585469        -0.359066         1.191994
 H        -0.720776         0.236793        -0.322068
 H        -0.116515        -1.370142        -0.178022
 H         1.610754         1.554086         1.771993
 H         2.526964        -0.168940         2.009118
 H         4.399630         1.858177         2.000037
 H         2.151883         3.072555        -0.285348
 H         3.293223         2.393181        -1.373602
 H         1.257086         0.709962        -2.013269
 H         3.822583        -0.247889        -1.531909
