19
Iteration:  1912charge 0 multiplicity 1
 C        -0.072758        -0.426630         0.151387
 C         1.393749        -0.112165         0.120112
 C         2.057808         0.762410         1.251595
 C         3.290161         1.165197         0.401673
 O         4.476242         1.555284         0.986043
 C         2.627457         2.069995        -0.510064
 C         1.946470         0.862892        -1.091399
 C         3.168510        -0.019162        -0.784055
 O         2.344873        -1.120362        -0.274224
 H        -0.252980        -0.995398         1.167049
 H        -0.662001         0.529942         0.001693
 H        -0.436092        -1.167374        -0.593414
 H         1.424249         1.465810         1.688850
 H         2.258406         0.121480         2.115335
 H         4.547145         1.133956         1.807501
 H         2.059162         2.980292        -0.155857
 H         3.394805         2.452075        -1.280944
 H         1.387489         0.894802        -2.063217
 H         4.165649        -0.250531        -1.363549
