19
Iteration:  4604charge 0 multiplicity 1
 C        -0.090060        -0.362119         0.238121
 C         1.421150         0.001812         0.110599
 C         2.173146         0.563005         1.253525
 C         3.277483         1.166540         0.405327
 O         4.529992         1.494100         0.950341
 C         2.476674         2.091393        -0.635481
 C         1.882318         0.796017        -1.158239
 C         3.195275         0.084334        -0.726773
 O         2.361827        -1.091990        -0.217338
 H        -0.614021         0.390414         0.968601
 H        -0.645376        -0.284086        -0.744258
 H        -0.205526        -1.373074         0.570945
 H         1.693578         1.319612         1.885113
 H         2.480763        -0.324939         1.884246
 H         4.322368         1.444532         1.923431
 H         1.784669         2.778234        -0.080710
 H         3.350184         2.534273        -1.189877
 H         1.414620         0.762476        -2.244624
 H         4.080898        -0.019652        -1.364012
