19
Iteration:  3079
 C        -0.027129        -0.582088         0.242427
 C         1.333767        -0.022900         0.095830
 C         2.008293         0.693432         1.259412
 C         3.247423         1.169723         0.410787
 O         4.544415         1.369472         0.966789
 C         2.594652         2.150134        -0.610934
 C         1.879321         0.933862        -1.079235
 C         3.171079         0.055904        -0.752818
 O         2.434498        -1.038858        -0.244320
 H         0.194096        -1.609322         0.553659
 H        -0.677447         0.113553         0.855873
 H        -0.491538        -0.472202        -0.717908
 H         1.292669         1.551736         1.540422
 H         2.224070         0.069621         2.051420
 H         4.498753         1.848645         1.759375
 H         2.122943         3.097441        -0.294636
 H         3.298462         2.320336        -1.471009
 H         1.327517         0.994957        -2.053498
 H         4.022309        -0.232347        -1.381726
