19
Iteration:  4726charge 0 multiplicity 1
 C        -0.066476        -0.459170         0.199092
 C         1.362084         0.006865         0.060318
 C         2.142206         0.614553         1.281674
 C         3.275844         1.120386         0.394721
 O         4.618609         1.465560         0.907684
 C         2.497112         2.157249        -0.511271
 C         1.903617         0.859071        -1.121226
 C         3.109367         0.016307        -0.709424
 O         2.335900        -1.098436        -0.222101
 H        -0.696975         0.376684        -0.032108
 H        -0.099614        -1.217549        -0.574225
 H        -0.372858        -0.686602         1.135761
 H         1.664719         1.543668         1.713734
 H         2.319656        -0.032241         2.106273
 H         4.593718         2.206993         1.428395
 H         2.056441         2.937015         0.111586
 H         3.259097         2.486446        -1.190212
 H         1.497198         0.718704        -2.100402
 H         3.783004        -0.243507        -1.509938
