19
Iteration:  4878charge 0 multiplicity 1
 C        -0.059832        -0.524603         0.258769
 C         1.384318        -0.021796         0.130616
 C         2.123830         0.654829         1.304488
 C         3.293530         1.093981         0.408345
 O         4.554452         1.478044         0.903415
 C         2.540937         2.135478        -0.583900
 C         1.949426         0.956631        -1.157191
 C         3.122764         0.077448        -0.785078
 O         2.346173        -1.087318        -0.217355
 H        -0.712763         0.379053         0.206995
 H        -0.380397        -1.204718        -0.571411
 H        -0.220622        -1.137162         1.123972
 H         1.635548         1.576434         1.632834
 H         2.273383        -0.089050         2.016697
 H         4.616397         1.175486         1.770304
 H         1.794164         2.846318        -0.092640
 H         3.088873         2.722893        -1.295500
 H         1.298965         0.870133        -1.979221
 H         3.902561        -0.100175        -1.518219
