19
Iteration:   993charge 0 multiplicity 1
 C        -0.035308        -0.339534         0.191399
 C         1.369859         0.080164         0.021730
 C         2.131192         0.647533         1.222791
 C         3.295047         1.088232         0.382975
 O         4.477493         1.461870         1.113330
 C         2.578862         2.099118        -0.708907
 C         1.997471         0.854279        -1.184966
 C         3.147555        -0.051021        -0.647565
 O         2.287847        -1.127955        -0.192231
 H        -0.378168        -0.579899         1.141850
 H        -0.645406         0.599285        -0.072733
 H        -0.124075        -1.292175        -0.461482
 H         1.652931         1.492747         1.724090
 H         2.379372        -0.183574         1.914615
 H         4.093977         1.946996         1.929235
 H         2.069676         3.000496        -0.486497
 H         3.427866         2.471655        -1.207820
 H         1.497077         0.763874        -2.104660
 H         3.924717        -0.359444        -1.255588
