19
Iteration:   406
 C        -0.070488        -0.338822         0.244790
 C         1.289323         0.075379        -0.000806
 C         2.080459         0.707984         1.189582
 C         3.258987         1.197544         0.464496
 O         4.455263         1.414847         1.169907
 C         2.666108         2.165099        -0.666902
 C         2.069592         0.778288        -1.215946
 C         3.188442        -0.056716        -0.734776
 O         2.292491        -1.135647        -0.300446
 H        -0.010228        -0.531909         1.384058
 H        -0.983275         0.342962         0.205708
 H        -0.169984        -1.304994        -0.161923
 H         1.629993         1.454313         1.756088
 H         2.390924        -0.126615         1.809235
 H         4.218839         1.356965         2.164876
 H         1.919338         2.898397        -0.365930
 H         3.489345         2.482481        -1.302339
 H         1.651408         0.668451        -2.295065
 H         4.067624        -0.298836        -1.289569
