19
Iteration:  4728charge 0 multiplicity 1
 C        -0.069003        -0.469013         0.182043
 C         1.365840         0.012695         0.067568
 C         2.136795         0.607759         1.307508
 C         3.275787         1.112276         0.399127
 O         4.606601         1.478213         0.902125
 C         2.515858         2.138964        -0.511351
 C         1.929143         0.856627        -1.135249
 C         3.108311         0.030213        -0.714060
 O         2.316269        -1.101847        -0.220498
 H        -0.665889         0.358461         0.003593
 H        -0.176072        -1.200158        -0.574344
 H        -0.386026        -0.659362         1.199980
 H         1.709450         1.508391         1.754661
 H         2.456910        -0.019179         2.080155
 H         4.537338         2.293804         1.431992
 H         2.103341         2.924450         0.116111
 H         3.214609         2.542248        -1.221377
 H         1.508694         0.750826        -2.080504
 H         3.739828        -0.249871        -1.578871
