19
Iteration:   757
 C        -0.083037        -0.457327        -0.045739
 C         1.328926         0.096453         0.109224
 C         2.022649         0.817010         1.268697
 C         3.286515         1.122560         0.405459
 O         4.569335         1.340601         0.954939
 C         2.661794         2.164257        -0.602023
 C         1.964981         0.848922        -1.105332
 C         3.104103        -0.109327        -0.676102
 O         2.355351        -1.100769        -0.095720
 H        -0.263248        -1.036844         1.018697
 H        -0.902996         0.248380        -0.031751
 H        -0.114447        -1.158759        -0.808584
 H         1.490594         1.697359         1.542596
 H         2.169485         0.228412         2.143040
 H         4.320589         1.863272         1.708037
 H         2.183089         2.972185        -0.042106
 H         3.358864         2.722000        -1.245472
 H         1.435669         0.882205        -2.024918
 H         4.059308        -0.301487        -1.070562
