19
Iteration:  4725charge 0 multiplicity 1
 C        -0.062877        -0.452841         0.204672
 C         1.359657         0.002995         0.058947
 C         2.143564         0.621233         1.268004
 C         3.277843         1.125188         0.393119
 O         4.623479         1.455799         0.908033
 C         2.489603         2.164399        -0.510778
 C         1.890391         0.860840        -1.111763
 C         3.110687         0.009197        -0.708599
 O         2.345534        -1.096286        -0.223224
 H        -0.724469         0.400431        -0.062028
 H        -0.073818        -1.236829        -0.576071
 H        -0.373199        -0.722666         1.145206
 H         1.640911         1.552703         1.691552
 H         2.257801        -0.058208         2.128932
 H         4.614874         2.206559         1.456122
 H         2.021889         2.946198         0.102479
 H         3.287572         2.471997        -1.184425
 H         1.480783         0.703958        -2.124687
 H         3.819200        -0.241401        -1.472566
