19
Iteration:  4927
 C        -0.039014        -0.330854         0.277653
 C         1.398229        -0.079824         0.131090
 C         2.122154         0.571313         1.334263
 C         3.238166         1.110002         0.414498
 O         4.524350         1.485882         0.986737
 C         2.498060         2.182651        -0.536252
 C         1.908393         0.818431        -1.102286
 C         3.112271        -0.014393        -0.890628
 O         2.432119        -1.103306        -0.329083
 H        -0.506928         0.670597         0.264335
 H        -0.445528        -0.921663        -0.554577
 H        -0.223692        -0.918542         1.270175
 H         1.623233         1.479423         1.846788
 H         2.434118        -0.318392         2.052413
 H         4.338388         2.513185         1.093713
 H         1.856328         3.034726        -0.055340
 H         3.369966         2.676685        -1.112657
 H         1.401807         0.541696        -2.083780
 H         3.952766        -0.223035        -1.599435
