19
Iteration:  3859
 C         0.008352        -0.567295         0.208041
 C         1.377257        -0.000705         0.084299
 C         2.074894         0.759275         1.271996
 C         3.292122         1.137613         0.388465
 O         4.534498         1.363820         0.979605
 C         2.556659         2.169147        -0.647019
 C         1.880095         0.851896        -1.108597
 C         3.116781         0.075772        -0.700560
 O         2.385901        -1.067821        -0.170283
 H        -0.198553        -1.329182         0.924675
 H        -0.740091         0.233598         0.296418
 H        -0.386014        -1.061734        -0.803776
 H         1.534702         1.657746         1.690023
 H         2.419822        -0.093888         1.936060
 H         4.506385         2.323197         1.406123
 H         1.914237         2.946295        -0.206391
 H         3.323014         2.580637        -1.317140
 H         1.309256         0.875068        -2.074500
 H         3.881134        -0.229181        -1.567845
