19
Iteration:  1567
 C        -0.035037        -0.435931         0.192371
 C         1.356623        -0.006656         0.040253
 C         2.058478         0.689904         1.213932
 C         3.343199         1.184665         0.392070
 O         4.532672         1.476207         1.053427
 C         2.572311         2.091846        -0.557168
 C         1.979774         0.819839        -1.169457
 C         3.190313         0.014553        -0.736603
 O         2.274547        -1.097255        -0.222620
 H        -0.357156        -0.514005         1.292897
 H        -0.679249         0.373207        -0.129264
 H        -0.339871        -1.357340        -0.402529
 H         1.425376         1.633869         1.626219
 H         2.343980        -0.046000         1.920497
 H         4.360236         1.045009         1.879160
 H         1.926432         2.845316        -0.012893
 H         3.213013         2.773664        -1.186740
 H         1.475900         0.827672        -2.196544
 H         4.091149        -0.191439        -1.403629
