19
Iteration:  4956charge 0 multiplicity 1
 C        -0.043842        -0.536045         0.237100
 C         1.328149        -0.070771         0.064767
 C         2.194084         0.623948         1.221159
 C         3.282442         1.081446         0.360761
 O         4.556124         1.551359         1.059003
 C         2.573550         2.204264        -0.565948
 C         1.872388         0.903505        -1.023135
 C         3.142977         0.003962        -0.733778
 O         2.256149        -1.078951        -0.298158
 H        -0.606804         0.309702         0.629713
 H        -0.437833        -0.887780        -0.702939
 H        -0.074841        -1.303893         1.033981
 H         1.910562         1.506477         1.819968
 H         2.399888        -0.185940         1.844437
 H         4.794186         2.286024         0.492632
 H         2.013163         2.976274        -0.047778
 H         3.313347         2.497265        -1.264170
 H         1.447918         0.780461        -2.058991
 H         4.001219        -0.309602        -1.459917
