19
Iteration:  2962
 C        -0.057926        -0.526499         0.211584
 C         1.373907         0.001182         0.111867
 C         2.072761         0.696996         1.215459
 C         3.311042         1.121440         0.352392
 O         4.503880         1.481227         1.011493
 C         2.521211         2.201970        -0.509925
 C         1.936971         0.854824        -1.099506
 C         3.202092         0.000295        -0.823310
 O         2.348780        -1.058901        -0.237469
 H        -0.218124        -0.786302         1.239792
 H        -0.698992         0.148241        -0.210362
 H        -0.255118        -1.355032        -0.494111
 H         1.640276         1.630682         1.560353
 H         2.440095        -0.070362         2.110310
 H         4.770891         0.725247         1.612197
 H         1.805112         2.852436         0.015841
 H         3.160690         2.796940        -1.171399
 H         1.277008         1.024425        -1.952824
 H         4.075049        -0.169344        -1.412268
