19
Iteration:  1144
 C        -0.107056        -0.285299         0.155303
 C         1.372168         0.016817        -0.001959
 C         2.069203         0.617283         1.233685
 C         3.272884         1.117650         0.427200
 O         4.463639         1.536420         1.065361
 C         2.615670         2.120874        -0.674383
 C         2.037561         0.849747        -1.198189
 C         3.180417        -0.051367        -0.634552
 O         2.315569        -1.112022        -0.134339
 H        -0.086276        -0.758309         1.033551
 H        -0.946401         0.421586         0.125665
 H        -0.505457        -1.029405        -0.608624
 H         1.495454         1.393663         1.764576
 H         2.524548        -0.233923         1.954587
 H         4.941290         0.795911         1.535944
 H         1.891945         2.922975        -0.334545
 H         3.379561         2.336201        -1.426603
 H         1.562689         0.755010        -2.123674
 H         3.942790        -0.262651        -1.310682
