19
Iteration:  1832charge 0 multiplicity 1
 C        -0.040678        -0.487862         0.217920
 C         1.311264        -0.032268         0.015528
 C         1.973748         0.668551         1.273251
 C         3.279659         1.208627         0.457601
 O         4.482922         1.538620         1.008034
 C         2.744854         2.087725        -0.626405
 C         1.949394         0.879208        -1.135371
 C         3.159407        -0.040144        -0.746091
 O         2.354322        -1.064705        -0.225371
 H        -0.038880        -1.473803         0.782708
 H        -0.617697         0.190920         1.024151
 H        -0.599867        -0.564026        -0.776048
 H         1.342291         1.643369         1.439806
 H         2.185725         0.086193         2.059790
 H         4.723002         0.901143         1.649041
 H         2.183595         2.954415        -0.133498
 H         3.440945         2.389229        -1.458174
 H         1.427605         0.834495        -2.052530
 H         3.985264        -0.193016        -1.349501
