19
Iteration:  3550
 C        -0.036807        -0.593117         0.291113
 C         1.409718        -0.020973         0.012783
 C         2.069229         0.832488         1.245299
 C         3.310191         1.104587         0.391754
 O         4.502240         1.532722         1.023687
 C         2.634939         2.130933        -0.542933
 C         1.806861         0.898746        -1.121248
 C         3.184616        -0.039137        -0.801254
 O         2.334446        -1.089103        -0.268826
 H         0.010770        -1.035697         1.231501
 H        -0.815765         0.180987         0.051519
 H        -0.224409        -1.364149        -0.444889
 H         1.577074         1.729097         1.519267
 H         2.132663         0.039547         2.083332
 H         4.565754         1.281210         1.948177
 H         2.153687         2.984406        -0.075759
 H         3.289819         2.422090        -1.338598
 H         1.320939         0.989663        -2.109609
 H         4.017227        -0.331114        -1.465249
