19
Iteration:  3061
 C        -0.027851        -0.544338         0.239173
 C         1.392372         0.006213         0.084286
 C         2.117237         0.703327         1.293468
 C         3.236057         1.204424         0.397271
 O         4.472803         1.337343         0.970667
 C         2.574473         2.209742        -0.622224
 C         1.926856         0.875681        -1.214983
 C         3.142721         0.101968        -0.678091
 O         2.367730        -1.057551        -0.237424
 H         0.141730        -1.642478         0.566499
 H        -0.492970         0.120277         0.941762
 H        -0.736617        -0.619368        -0.744154
 H         1.716752         1.506980         1.835949
 H         2.618078        -0.214965         1.844006
 H         4.322714         1.650400         1.836907
 H         1.808248         2.860230        -0.189326
 H         3.326841         2.585292        -1.308540
 H         1.383348         0.508122        -2.128004
 H         4.079727        -0.159398        -1.190924
