19
Iteration:   291
 C        -0.122652        -0.416964         0.141271
 C         1.372720         0.015748         0.099103
 C         1.990364         0.749654         1.200072
 C         3.256873         1.141045         0.465356
 O         4.415576         1.423979         1.157822
 C         2.778725         2.086580        -0.694330
 C         1.981232         0.820904        -1.124285
 C         3.182831         0.010461        -0.702433
 O         2.310512        -1.045092        -0.208322
 H        -0.288758        -1.307726         0.774071
 H        -0.618194         0.364823         0.645049
 H        -0.371143        -0.772683        -0.875412
 H         1.523244         1.835295         1.396038
 H         2.121296         0.074979         2.118799
 H         5.207783         0.887890         0.802166
 H         2.229861         2.944917        -0.292230
 H         3.573650         2.251951        -1.437308
 H         1.762129         0.755123        -2.174574
 H         3.912431        -0.229956        -1.564957
