19
Iteration:  1279
 C        -0.102782        -0.398636         0.195067
 C         1.330940         0.101826         0.057101
 C         2.114707         0.715596         1.203875
 C         3.313905         1.144786         0.357925
 O         4.437224         1.553093         1.143077
 C         2.699850         2.045358        -0.641112
 C         1.967502         0.861440        -1.171949
 C         3.150624        -0.113508        -0.695458
 O         2.285534        -1.101866        -0.251815
 H         0.066425        -1.273940         0.748688
 H        -0.684546         0.321353         0.750998
 H        -0.556422        -0.714128        -0.692397
 H         1.663767         1.618630         1.633974
 H         2.449248        -0.089828         1.998350
 H         4.579661         0.894017         1.784390
 H         2.041758         2.659849        -0.065674
 H         3.361729         2.555335        -1.325422
 H         1.670042         0.686150        -2.281648
 H         4.100595        -0.398567        -1.290191
