19
Iteration:  1479
 C        -0.043454        -0.447754         0.056398
 C         1.400470         0.011431         0.065537
 C         2.040242         0.756847         1.274620
 C         3.288813         1.088614         0.435618
 O         4.533689         1.498773         0.954177
 C         2.580554         2.157477        -0.524277
 C         1.936151         0.857762        -1.105844
 C         3.150929        -0.053392        -0.697760
 O         2.330042        -1.115077        -0.185709
 H        -0.237044        -1.297485         0.700581
 H        -0.475254         0.308073         0.595228
 H        -0.365049        -0.563717        -0.928826
 H         1.335273         1.748383         1.298363
 H         2.027972         0.360736         2.267303
 H         4.886723         1.016767         1.783982
 H         2.014287         2.963708        -0.057755
 H         3.260120         2.401567        -1.337057
 H         1.548152         0.678267        -2.107073
 H         3.901682        -0.453774        -1.373946
