19
Iteration:  2762
 C        -0.024645        -0.536374         0.190045
 C         1.373655         0.043877         0.114664
 C         2.072537         0.622770         1.296277
 C         3.279802         1.148356         0.370111
 O         4.486614         1.508699         1.044997
 C         2.572252         2.156866        -0.595357
 C         1.928010         0.913234        -1.166067
 C         3.140935         0.017553        -0.728330
 O         2.347816        -1.046116        -0.255615
 H        -0.305450        -0.697272         1.228464
 H        -0.709441         0.245408        -0.078139
 H        -0.005898        -1.487901        -0.262899
 H         1.531210         1.405948         1.968636
 H         2.385266        -0.245874         2.031711
 H         4.959816         0.643129         1.016666
 H         1.854503         2.897933        -0.248970
 H         3.383028         2.422442        -1.263911
 H         1.392931         1.061398        -2.157716
 H         4.008961        -0.278859        -1.451567
