19
Iteration:   647charge 0 multiplicity 1
 C        -0.090601        -0.399846         0.042093
 C         1.358337        -0.004154         0.106380
 C         2.087921         0.709242         1.311046
 C         3.230315         1.161931         0.429802
 O         4.513795         1.388892         1.041668
 C         2.723659         2.086340        -0.721156
 C         1.958501         0.808593        -1.144194
 C         3.132998         0.005666        -0.655148
 O         2.322203        -1.037545        -0.172608
 H        -0.578868        -1.043925         0.869957
 H        -0.646655         0.558962         0.060845
 H        -0.205636        -1.000442        -0.792957
 H         1.567928         1.550905         1.911443
 H         2.346759        -0.013977         2.103235
 H         4.473839         1.798503         1.899768
 H         1.976257         2.849902        -0.455417
 H         3.526440         2.488879        -1.368062
 H         1.312742         0.840160        -2.077329
 H         3.999170        -0.314661        -1.293167
