19
Iteration:  2630
 C        -0.006834        -0.512275         0.267543
 C         1.336737        -0.003625         0.091039
 C         2.083805         0.597620         1.260281
 C         3.196647         1.213103         0.334193
 O         4.468318         1.446634         1.002491
 C         2.666179         2.169229        -0.682831
 C         1.953456         0.859823        -1.110321
 C         3.143833         0.105227        -0.680116
 O         2.342564        -1.062577        -0.254610
 H         0.203950        -1.481726         0.807171
 H        -0.712068         0.201260         0.929877
 H        -0.514735        -0.652712        -0.722315
 H         1.424716         1.299882         1.781393
 H         2.438474        -0.247110         1.954206
 H         4.321770         0.838924         1.861979
 H         2.313125         3.179742        -0.375882
 H         3.469624         2.495563        -1.390166
 H         1.484286         0.881698        -2.104298
 H         4.066870        -0.051243        -1.282398
