19
Iteration:   367charge 0 multiplicity 1
 C        -0.122553        -0.346534         0.073142
 C         1.393374        -0.000561         0.049126
 C         2.030247         0.676352         1.213236
 C         3.292086         1.155785         0.414800
 O         4.460978         1.556630         1.056540
 C         2.762047         2.100654        -0.566300
 C         1.966208         0.869052        -1.070898
 C         3.093406        -0.039650        -0.746468
 O         2.327145        -1.195435        -0.157896
 H        -0.327316        -1.120064         0.813083
 H        -0.699047         0.548506         0.183379
 H        -0.387715        -0.880242        -0.868205
 H         1.437990         1.645651         1.588104
 H         2.289997         0.016415         2.093355
 H         4.776331         0.997927         1.796541
 H         2.332424         3.080155        -0.291245
 H         3.555069         2.342083        -1.308149
 H         1.469840         0.733512        -2.075327
 H         3.921246        -0.369884        -1.516778
