19
Iteration:  3080
 C        -0.029105        -0.581040         0.244561
 C         1.333515        -0.026569         0.102565
 C         1.998340         0.690859         1.259055
 C         3.253777         1.170338         0.413133
 O         4.548747         1.372709         0.968375
 C         2.599384         2.148355        -0.602116
 C         1.882746         0.936812        -1.078111
 C         3.162501         0.059954        -0.757913
 O         2.435684        -1.037886        -0.243824
 H         0.220420        -1.632685         0.544603
 H        -0.660389         0.125166         0.843590
 H        -0.517917        -0.486125        -0.772259
 H         1.317839         1.549141         1.484811
 H         2.235847         0.110411         2.017993
 H         4.495239         1.853064         1.733387
 H         2.104371         3.088258        -0.291869
 H         3.291210         2.277266        -1.469884
 H         1.322297         0.972546        -2.068250
 H         3.989802        -0.249091        -1.400351
