19
Iteration:  1512charge 0 multiplicity 1
 C        -0.077416        -0.482400         0.195581
 C         1.305603         0.073505         0.047451
 C         2.140006         0.589921         1.266299
 C         3.279646         1.137582         0.408534
 O         4.460092         1.517387         1.095042
 C         2.644892         2.182015        -0.696666
 C         1.979878         0.889647        -1.190252
 C         3.161721        -0.019876        -0.691378
 O         2.297347        -1.049385        -0.186427
 H        -0.238960        -1.077936         1.106441
 H        -0.817208         0.245081         0.045107
 H        -0.459800        -1.164342        -0.539573
 H         1.535161         1.438257         1.884253
 H         2.366510        -0.248368         1.888265
 H         4.887178         0.816579         1.470470
 H         2.235975         3.134443        -0.379089
 H         3.471045         2.392772        -1.423252
 H         1.608908         0.712930        -2.225244
 H         4.034521        -0.418061        -1.248337
