19
Iteration:  4069
 C        -0.022096        -0.502763         0.241999
 C         1.405777         0.016664         0.106192
 C         2.019302         0.785722         1.199724
 C         3.301166         1.136479         0.365229
 O         4.520509         1.473039         1.032762
 C         2.523303         2.113054        -0.565048
 C         1.924198         0.866311        -1.145415
 C         3.118664        -0.022844        -0.772626
 O         2.427915        -1.080867        -0.240364
 H        -0.305454        -0.400613         1.351883
 H        -0.652122         0.129273        -0.405679
 H        -0.124565        -1.548694         0.010942
 H         1.496298         1.699530         1.452373
 H         2.353501         0.135369         2.047781
 H         4.693023         0.768485         1.640300
 H         1.735247         2.767085        -0.183674
 H         3.178680         2.679021        -1.246359
 H         1.198815         0.836544        -1.991272
 H         3.972772        -0.295839        -1.330752
