19
Iteration:   269charge 0 multiplicity 1
 C        -0.101428        -0.415316         0.203771
 C         1.354138         0.081671         0.040914
 C         2.120443         0.719202         1.224483
 C         3.261879         1.176291         0.419177
 O         4.377970         1.419680         1.296434
 C         2.779609         2.171103        -0.761205
 C         1.936183         0.862180        -1.269618
 C         3.164340        -0.090046        -0.695377
 O         2.271028        -1.102491        -0.256410
 H        -0.100117        -1.041365         1.127964
 H        -0.699858         0.418750         0.437210
 H        -0.360306        -1.159704        -0.560855
 H         1.359282         1.470193         1.715146
 H         2.426308        -0.125892         1.935447
 H         5.282212         1.264665         1.070527
 H         2.361433         3.141368        -0.458138
 H         3.600292         2.218362        -1.496351
 H         1.281360         0.821221        -2.135994
 H         4.230834        -0.387325        -1.027640
