19
Iteration:  3997charge 0 multiplicity 1
 C        -0.023250        -0.523730         0.211966
 C         1.345682         0.028550         0.108854
 C         2.075916         0.763921         1.220652
 C         3.335451         1.147477         0.418506
 O         4.459794         1.600973         0.971696
 C         2.593085         2.087909        -0.606567
 C         1.932148         0.839848        -1.074594
 C         3.176091        -0.094282        -0.738749
 O         2.325045        -1.108992        -0.218009
 H        -0.021494        -1.531268         0.631272
 H        -0.642457         0.371958         0.504526
 H        -0.447615        -0.660575        -0.788128
 H         1.557889         1.766120         1.612152
 H         2.246138        -0.022527         2.034571
 H         4.932211         0.968023         1.426185
 H         1.956807         2.817667        -0.046034
 H         3.179608         2.612112        -1.369810
 H         1.338837         0.914067        -2.006379
 H         4.079024        -0.346560        -1.349288
