19
Iteration:  2360
 C        -0.083165        -0.451763         0.248110
 C         1.385795        -0.053639         0.023982
 C         2.112043         0.779150         1.232747
 C         3.316708         1.151169         0.424230
 O         4.473824         1.604189         1.091052
 C         2.618886         2.080811        -0.501580
 C         1.910797         0.876530        -1.125905
 C         3.128639        -0.054124        -0.850544
 O         2.366421        -1.156639        -0.356411
 H        -0.215616        -0.499707         1.414809
 H        -0.789167         0.307165         0.017673
 H        -0.331691        -1.478900        -0.181435
 H         1.397216         1.546444         1.504220
 H         2.373210         0.185532         2.188000
 H         4.666397         0.965777         1.718921
 H         1.957312         2.633214         0.123389
 H         3.274588         2.544558        -1.215597
 H         1.490604         0.857042        -2.119474
 H         4.017861        -0.401540        -1.438212
