19
Iteration:  4464
 C        -0.095386        -0.442654         0.232499
 C         1.353778        -0.039619         0.047103
 C         2.174045         0.579053         1.284793
 C         3.245336         1.171219         0.393405
 O         4.526826         1.434117         0.946714
 C         2.506157         2.191342        -0.614449
 C         1.904416         0.886089        -1.092772
 C         3.222033         0.074139        -0.758079
 O         2.376704        -1.076297        -0.218252
 H        -0.779163         0.423234        -0.028263
 H        -0.262715        -1.383961        -0.360007
 H        -0.225192        -0.780295         1.258552
 H         1.691321         1.463891         1.786227
 H         2.399562        -0.157818         2.015752
 H         4.531540         1.263903         1.971866
 H         1.914377         2.950011        -0.074444
 H         3.231631         2.396437        -1.407764
 H         1.209228         0.980431        -2.101147
 H         4.070798        -0.161490        -1.444442
