19
Iteration:  3111
 C        -0.039779        -0.627408         0.179848
 C         1.325116         0.027550         0.099895
 C         2.111821         0.744094         1.275985
 C         3.291764         1.156985         0.375132
 O         4.541579         1.386536         0.988081
 C         2.576555         2.179024        -0.539543
 C         1.892253         0.934908        -1.109820
 C         3.169629         0.008328        -0.727441
 O         2.334243        -1.078664        -0.268961
 H        -0.034144        -1.529938         0.772693
 H        -0.818065         0.102396         0.596623
 H        -0.201165        -1.041085        -0.762027
 H         1.549319         1.726571         1.687031
 H         2.527277         0.032201         2.067301
 H         4.459061         2.337989         1.449225
 H         2.011264         2.994490        -0.028284
 H         3.164123         2.539325        -1.412959
 H         1.321950         0.967693        -2.070360
 H         4.039254        -0.389098        -1.268131
