19
Iteration:   788charge 0 multiplicity 1
 C        -0.156497        -0.394440         0.065299
 C         1.319767         0.049803         0.056019
 C         2.056458         0.703476         1.308925
 C         3.245559         1.154622         0.475346
 O         4.581768         1.388781         1.001774
 C         2.641201         2.096470        -0.714642
 C         2.011849         0.802948        -1.159134
 C         3.133445         0.002427        -0.633778
 O         2.347086        -1.061520        -0.185317
 H        -0.291400        -0.703249         1.255460
 H        -0.735760         0.555016        -0.243562
 H        -0.294325        -1.327975        -0.496672
 H         1.549665         1.377994         1.915278
 H         2.271698        -0.066631         2.005786
 H         4.380772         1.777386         1.930451
 H         1.971649         2.929470        -0.355065
 H         3.504254         2.382239        -1.381191
 H         1.637493         0.694906        -2.173937
 H         4.083613        -0.088949        -1.111353
