19
Iteration:  3002
 C        -0.103058        -0.485689         0.232489
 C         1.402638        -0.068159         0.141635
 C         2.109295         0.586379         1.314703
 C         3.269181         1.168626         0.449038
 O         4.485261         1.521541         0.947340
 C         2.614564         2.140125        -0.581246
 C         1.943530         0.928342        -1.091100
 C         3.183732         0.064117        -0.803308
 O         2.357765        -1.107929        -0.325739
 H        -0.476072        -0.992590         1.190098
 H        -0.769179         0.496359         0.101215
 H        -0.217524        -1.135795        -0.681769
 H         1.511866         1.338828         1.874870
 H         2.305351        -0.090114         1.955750
 H         4.488197         1.567568         1.916887
 H         2.017925         3.030152        -0.378583
 H         3.333321         2.484874        -1.340159
 H         1.250849         0.780303        -1.919322
 H         3.992215        -0.348123        -1.428704
