19
Iteration:   179
 C        -0.116334        -0.383460        -0.074747
 C         1.357981         0.064182         0.144657
 C         2.107198         0.746886         1.266595
 C         3.313489         1.130342         0.388456
 O         4.524182         1.342193         0.969203
 C         2.617855         2.126075        -0.590993
 C         2.019761         0.890705        -1.121302
 C         3.150093        -0.125316        -0.623064
 O         2.281404        -1.077061        -0.084854
 H        -0.527505        -1.200501         0.563598
 H        -0.756119         0.499705        -0.000127
 H        -0.240959        -0.813753        -0.995477
 H         1.616988         1.692555         1.638734
 H         2.351220         0.036611         2.132657
 H         4.284375         2.001142         1.564072
 H         1.981106         2.893081        -0.158701
 H         3.369486         2.574743        -1.243693
 H         1.438179         0.968185        -2.113051
 H         4.155068        -0.541792        -1.019983
