19
Iteration:  2856charge 0 multiplicity 1
 C        -0.164607        -0.446477         0.211755
 C         1.391645        -0.056513         0.074461
 C         2.114923         0.583622         1.322617
 C         3.268313         1.244541         0.427305
 O         4.498268         1.505701         0.955188
 C         2.606164         2.144646        -0.585295
 C         1.899941         0.829651        -1.139159
 C         3.139631         0.074884        -0.761294
 O         2.416177        -1.078755        -0.280970
 H        -0.274785        -1.473389         0.637566
 H        -0.490230         0.210971         1.160579
 H        -0.596276        -0.620392        -0.827924
 H         1.469059         1.257774         1.893101
 H         2.484071        -0.110189         2.017876
 H         4.491095         1.354156         1.890682
 H         2.087467         3.136861        -0.331356
 H         3.577357         2.230436        -1.215799
 H         1.467574         0.691185        -2.135976
 H         4.040669        -0.241536        -1.301198
