19
Iteration:   735
 C        -0.090846        -0.420969         0.078916
 C         1.360621        -0.031928         0.065744
 C         1.984566         0.808472         1.228059
 C         3.291416         1.152165         0.423796
 O         4.560917         1.298887         1.062745
 C         2.680875         2.104934        -0.614647
 C         1.898154         0.800582        -1.140322
 C         3.153473         0.007658        -0.708824
 O         2.352110        -1.030253        -0.125925
 H        -0.284168        -1.372607         0.736065
 H        -0.728755         0.392943         0.374236
 H        -0.153508        -0.755395        -0.867204
 H         1.542807         1.754505         1.489592
 H         2.117160         0.327208         2.171896
 H         4.430018         2.175556         1.548670
 H         2.257022         3.082020        -0.326814
 H         3.414180         2.325238        -1.414011
 H         1.473884         0.753684        -2.128641
 H         3.944747        -0.289135        -1.370867
