19
Iteration:  3603charge 0 multiplicity 1
 C        -0.066670        -0.510483         0.134429
 C         1.399904         0.011894         0.121128
 C         2.058967         0.699331         1.233652
 C         3.266994         1.204064         0.360588
 O         4.511041         1.473379         1.015734
 C         2.553716         2.098787        -0.562640
 C         1.868268         0.827480        -1.107635
 C         3.137539         0.029115        -0.691420
 O         2.433969        -1.048069        -0.173198
 H        -0.265070        -0.706208         1.146575
 H        -0.703403         0.289540        -0.317546
 H        -0.237019        -1.442967        -0.280095
 H         1.421083         1.493638         1.634610
 H         2.351052        -0.105201         2.124198
 H         5.204225         0.965432         0.522235
 H         1.902854         2.881064        -0.204463
 H         3.197139         2.558947        -1.293346
 H         1.364488         0.831799        -2.138742
 H         3.979860        -0.135416        -1.335416
