19
Iteration:  4435charge 0 multiplicity 1
 C        -0.059352        -0.468274         0.177749
 C         1.363285        -0.025870         0.090528
 C         2.165866         0.637181         1.324749
 C         3.268860         1.127576         0.429942
 O         4.556668         1.563486         0.920638
 C         2.570987         2.141381        -0.535623
 C         1.921771         0.847175        -1.115570
 C         3.170782        -0.024479        -0.779167
 O         2.255808        -1.110634        -0.284238
 H        -0.557617         0.404784         0.438826
 H        -0.324674        -0.812182        -0.797350
 H        -0.098695        -1.370420         0.877669
 H         1.672340         1.588037         1.760344
 H         2.350952        -0.072464         2.175672
 H         4.434954         1.903411         1.867082
 H         2.027751         2.907074         0.063717
 H         3.316178         2.650352        -1.126210
 H         1.305320         0.930856        -1.920440
 H         4.006069        -0.440530        -1.454552
