19
Iteration:  1966
 C        -0.092369        -0.439062         0.226520
 C         1.376131        -0.041881         0.101229
 C         2.065357         0.610790         1.279088
 C         3.260406         1.159695         0.378516
 O         4.395645         1.518292         1.039255
 C         2.675617         2.159708        -0.630169
 C         1.943357         0.900591        -1.144696
 C         3.166713         0.012043        -0.705687
 O         2.415330        -1.097754        -0.258543
 H        -0.356912        -0.700207         1.342651
 H        -0.707241         0.454557        -0.057110
 H        -0.256293        -1.370744        -0.355149
 H         1.280895         1.493543         1.587806
 H         2.219155        -0.093012         2.099221
 H         4.884195         0.764178         1.185976
 H         2.204961         3.116825        -0.288935
 H         3.478787         2.577737        -1.313312
 H         1.465627         0.717366        -2.130772
 H         4.026503        -0.274062        -1.429996
