19
Iteration:  3076
 C        -0.019347        -0.578209         0.241423
 C         1.345354        -0.007998         0.074280
 C         2.034868         0.709897         1.258304
 C         3.232382         1.169501         0.403243
 O         4.529078         1.357265         0.958988
 C         2.585488         2.159070        -0.637713
 C         1.866415         0.918826        -1.089128
 C         3.190767         0.046263        -0.734630
 O         2.426483        -1.043442        -0.245443
 H         0.062218        -1.569296         0.602918
 H        -0.686002         0.018013         0.903329
 H        -0.472191        -0.470118        -0.669052
 H         1.295361         1.505941         1.704242
 H         2.205380        -0.085659         2.195220
 H         4.495169         1.864861         1.884344
 H         2.167722         3.112850        -0.296560
 H         3.310144         2.468951        -1.430389
 H         1.347372         1.033820        -2.000632
 H         4.117500        -0.160211        -1.317698
