19
Iteration:  1864charge 0 multiplicity 1
 C        -0.037488        -0.534355         0.119648
 C         1.344921         0.009162         0.016701
 C         2.166728         0.765090         1.302726
 C         3.274567         1.193184         0.393632
 O         4.531617         1.449777         1.015460
 C         2.566549         2.134096        -0.624161
 C         1.951261         0.849515        -1.187664
 C         3.146903        -0.031763        -0.676921
 O         2.292087        -1.064310        -0.170686
 H         0.024552        -1.546313         0.529774
 H        -0.678698         0.254098         0.642946
 H        -0.569913        -0.593400        -0.874502
 H         1.664682         1.739103         1.862049
 H         2.446026         0.194936         2.149664
 H         4.511358         1.065664         1.999106
 H         1.883386         2.746844         0.008014
 H         3.115688         2.734060        -1.371516
 H         1.472896         0.667905        -2.133131
 H         3.950438        -0.294622        -1.272322
