19
Iteration:  1759charge 0 multiplicity 1
 C        -0.126608        -0.406604         0.126770
 C         1.336873        -0.045054         0.049825
 C         2.027108         0.681855         1.290872
 C         3.277888         1.142723         0.409516
 O         4.513971         1.514461         0.926804
 C         2.620388         2.129182        -0.531163
 C         1.970887         0.843524        -1.071294
 C         3.177293         0.006208        -0.688544
 O         2.421085        -1.103831        -0.249510
 H        -0.501293        -0.601243         1.128640
 H        -0.674431         0.482827        -0.098689
 H        -0.382144        -1.184565        -0.507756
 H         1.445483         1.519900         1.602866
 H         2.119005        -0.167764         2.106292
 H         4.786502         0.999935         1.747437
 H         1.961378         2.912775        -0.150099
 H         3.317878         2.559322        -1.259550
 H         1.439000         0.625744        -1.979624
 H         4.085965        -0.183699        -1.274905
