19
Iteration:  2393charge 0 multiplicity 1
 C        -0.073812        -0.444481         0.155013
 C         1.379758         0.024857         0.083284
 C         2.145759         0.586362         1.317452
 C         3.234299         1.166341         0.433481
 O         4.467753         1.536579         0.984170
 C         2.615561         2.055529        -0.617346
 C         1.897824         0.859789        -1.136380
 C         3.166155         0.073333        -0.736589
 O         2.341841        -1.050140        -0.249867
 H        -0.155076        -0.889959         1.239574
 H        -0.751292         0.357612         0.070154
 H        -0.361113        -1.287092        -0.563429
 H         1.605570         1.264019         1.995484
 H         2.666874        -0.290614         1.853166
 H         4.532411         1.093190         1.831982
 H         2.131569         2.935245        -0.191936
 H         3.298265         2.503677        -1.308236
 H         1.563292         0.664862        -2.151728
 H         4.084610        -0.232351        -1.327864
