19
Iteration:   708charge 0 multiplicity 1
 C        -0.102873        -0.394973         0.248936
 C         1.329070         0.060104        -0.026608
 C         2.008966         0.728432         1.280244
 C         3.238240         1.220672         0.446261
 O         4.425632         1.303251         1.094446
 C         2.712692         2.129785        -0.732559
 C         2.061924         0.834146        -1.212923
 C         3.186586        -0.041864        -0.612849
 O         2.331337        -1.106822        -0.216170
 H        -0.034128        -1.354375         0.788084
 H        -0.703412         0.361033         0.908686
 H        -0.461391        -0.652901        -0.904729
 H         1.734007         1.577647         1.949644
 H         2.444742        -0.125788         1.875800
 H         4.402157         2.276131         1.427950
 H         2.029996         3.013906        -0.593905
 H         3.486076         2.530879        -1.414840
 H         1.691243         0.806126        -2.271781
 H         4.038223        -0.267491        -1.311224
