19
Iteration:  2196charge 0 multiplicity 1
 C        -0.080639        -0.444003         0.241426
 C         1.348898        -0.025395         0.059216
 C         2.111293         0.671962         1.237447
 C         3.287998         1.141831         0.428327
 O         4.447224         1.541772         1.038593
 C         2.611972         2.101035        -0.594343
 C         1.932531         0.864732        -1.120942
 C         3.160586        -0.022659        -0.746754
 O         2.402027        -1.074864        -0.321458
 H        -0.076567        -1.094365         1.152491
 H        -0.737865         0.457542         0.304589
 H        -0.448308        -1.108079        -0.557971
 H         1.466454         1.644693         1.641311
 H         2.288025         0.114309         2.149784
 H         4.582074         1.059901         1.891966
 H         2.134514         2.964483        -0.182464
 H         3.342315         2.402491        -1.351816
 H         1.320170         0.796263        -2.030578
 H         4.030274        -0.400782        -1.362696
