19
Iteration:  4004
 C         0.002087        -0.517073         0.141560
 C         1.333043        -0.010737         0.111141
 C         2.085455         0.740711         1.278268
 C         3.285108         1.131627         0.384520
 O         4.483016         1.590369         0.990081
 C         2.638658         2.133642        -0.619150
 C         1.945671         0.816785        -1.117385
 C         3.110493        -0.038203        -0.713385
 O         2.304774        -1.064204        -0.196766
 H         0.007277        -1.361398         0.931321
 H        -0.703839         0.130992         0.635795
 H        -0.374453        -1.010981        -0.764078
 H         1.538543         1.583567         1.603537
 H         2.363195         0.089219         2.040997
 H         5.089316         0.910499         1.254620
 H         2.019594         2.902157        -0.147294
 H         3.381720         2.609271        -1.284431
 H         1.325654         0.679031        -1.993904
 H         3.897487        -0.270066        -1.368759
