19
Iteration:  2371
 C        -0.041179        -0.439548         0.244017
 C         1.388548        -0.051210         0.098184
 C         2.088151         0.653580         1.189858
 C         3.323659         1.153137         0.417451
 O         4.490010         1.603490         1.063533
 C         2.581194         2.160242        -0.524843
 C         1.969056         0.880197        -1.134779
 C         3.107015        -0.088178        -0.790799
 O         2.334996        -1.157972        -0.340283
 H        -0.221465        -0.671653         1.380824
 H        -0.656875         0.335478        -0.147737
 H        -0.374310        -1.390380        -0.318620
 H         1.580751         1.584349         1.428394
 H         2.277350         0.103342         2.188787
 H         4.670484         1.063931         1.934045
 H         2.012169         2.981651        -0.090419
 H         3.089389         2.765388        -1.253048
 H         1.387329         0.931280        -2.057548
 H         3.999122        -0.297625        -1.444116
