19
Iteration:  1072
 C        -0.115127        -0.477752         0.141048
 C         1.285023         0.042779         0.120357
 C         2.110801         0.721258         1.301063
 C         3.252888         1.135060         0.421739
 O         4.470038         1.414870         1.031696
 C         2.729214         2.139194        -0.768438
 C         2.043954         0.906540        -1.250418
 C         3.105581        -0.025997        -0.701347
 O         2.315645        -1.041066        -0.111324
 H         0.068878        -1.465222         0.748328
 H        -0.999031         0.029802         0.585162
 H        -0.420304        -0.738345        -0.861371
 H         1.591155         1.644943         1.727720
 H         2.258056        -0.003766         2.041514
 H         4.474666         1.393616         2.066880
 H         2.111067         2.860119        -0.285504
 H         3.593627         2.412187        -1.353396
 H         1.659919         0.773274        -2.314590
 H         4.099056        -0.422324        -1.061886
