19
Iteration:  2646
 C        -0.049627        -0.530019         0.292442
 C         1.389719        -0.003911         0.047472
 C         2.064784         0.721513         1.247249
 C         3.285347         1.112794         0.440107
 O         4.450568         1.464393         1.019695
 C         2.647890         2.140288        -0.607268
 C         1.906065         0.935529        -1.180894
 C         3.158886        -0.008428        -0.772761
 O         2.376970        -1.054887        -0.291275
 H        -0.165135        -1.548901         0.738821
 H        -0.505311         0.000223         1.060721
 H        -0.624918        -0.660427        -0.645332
 H         1.538141         1.570868         1.781744
 H         2.242582         0.061620         2.090360
 H         4.559066         1.351158         1.962270
 H         2.010126         3.009593        -0.290918
 H         3.427194         2.486997        -1.327650
 H         1.326153         0.800974        -2.131287
 H         4.075303        -0.280902        -1.310097
