19
Iteration:  2005charge 0 multiplicity 1
 C        -0.058343        -0.531478         0.118746
 C         1.364422         0.008069         0.126976
 C         2.077880         0.724691         1.272736
 C         3.290960         1.114759         0.338923
 O         4.517246         1.471497         0.975228
 C         2.576701         2.163023        -0.601217
 C         1.975039         0.887831        -1.116753
 C         3.154238         0.001301        -0.727786
 O         2.320551        -1.043639        -0.159040
 H        -0.063916        -1.399920         0.726377
 H        -0.912996         0.157801         0.242056
 H        -0.252777        -0.995627        -0.858088
 H         1.592777         1.545216         1.730928
 H         2.361076         0.175207         2.180594
 H         4.541033         0.965145         1.838169
 H         1.960070         2.899778        -0.055883
 H         3.197553         2.731748        -1.295628
 H         1.571872         0.783418        -2.096778
 H         3.989829        -0.368012        -1.224222
