19
Iteration:  2526charge 0 multiplicity 1
 C        -0.026139        -0.403204         0.185515
 C         1.408709        -0.051789         0.049221
 C         2.146191         0.662764         1.245339
 C         3.303444         1.151209         0.375972
 O         4.496434         1.526347         1.020921
 C         2.543101         2.148138        -0.509072
 C         1.885178         0.889937        -1.136375
 C         3.136820         0.009459        -0.769308
 O         2.356127        -1.147548        -0.262560
 H        -0.258398        -0.861993         1.193823
 H        -0.698779         0.434829         0.201474
 H        -0.211625        -1.244427        -0.517919
 H         1.430855         1.543959         1.638578
 H         2.487895        -0.024663         2.068301
 H         4.490640         1.173751         1.957896
 H         1.897852         2.806019         0.102191
 H         3.134130         2.465415        -1.390291
 H         1.302611         0.941426        -2.114134
 H         3.979432        -0.417418        -1.387968
