19
Iteration:  2434
 C        -0.015363        -0.467353         0.108423
 C         1.363002        -0.058918         0.077858
 C         2.025963         0.759129         1.253107
 C         3.350703         1.153552         0.354287
 O         4.534953         1.529827         0.975741
 C         2.575427         2.129356        -0.493649
 C         1.932349         0.786040        -1.067917
 C         3.105584         0.005842        -0.721675
 O         2.349593        -1.061955        -0.222449
 H        -0.121219        -1.427286         0.585860
 H        -0.552127         0.129669         0.821295
 H        -0.294411        -0.675646        -0.905625
 H         1.428322         1.613266         1.345324
 H         2.224666         0.191889         2.282642
 H         4.877498         0.701798         1.544480
 H         1.901509         2.855894         0.065803
 H         3.078851         2.573723        -1.392783
 H         1.312186         0.837870        -1.927083
 H         3.902323        -0.220081        -1.411425
