19
Iteration:  3052
 C        -0.017412        -0.516903         0.249217
 C         1.327526        -0.008165         0.083467
 C         2.164111         0.663871         1.237548
 C         3.222626         1.201236         0.374230
 O         4.495905         1.367326         1.004368
 C         2.508713         2.164560        -0.588540
 C         2.013491         0.846714        -1.200155
 C         3.126426         0.080456        -0.742972
 O         2.348701        -1.024244        -0.217432
 H         0.176246        -1.485474         0.735942
 H        -0.610960         0.053746         0.914275
 H        -0.534484        -0.475950        -0.759315
 H         1.597565         1.407858         1.843786
 H         2.690499        -0.125339         2.143119
 H         4.399127         1.639161         1.895974
 H         1.808886         2.960539        -0.285550
 H         3.164906         2.744108        -1.251154
 H         1.663419         0.645437        -2.215235
 H         3.943229        -0.281167        -1.383935
