19
Iteration:  1018
 C        -0.168109        -0.374071         0.092301
 C         1.354138        -0.027555         0.115229
 C         1.993872         0.762424         1.279122
 C         3.245737         1.167604         0.414943
 O         4.524297         1.389418         0.982875
 C         2.646888         2.124626        -0.666380
 C         2.000595         0.791812        -1.117532
 C         3.191244        -0.015987        -0.736790
 O         2.411037        -1.088398        -0.156643
 H        -0.616239        -0.808556         1.038924
 H        -0.638923         0.589049         0.047315
 H        -0.368589        -1.086455        -0.635062
 H         1.401468         1.620609         1.943122
 H         2.334585        -0.017518         1.955820
 H         4.424864         1.589560         2.006207
 H         2.154647         3.043238        -0.313592
 H         3.576871         2.463715        -1.230589
 H         1.455665         0.678406        -2.086779
 H         4.100511        -0.286718        -1.331062
