19
Iteration:  3872
 C        -0.026433        -0.592766         0.170272
 C         1.357395         0.029834         0.165467
 C         2.089555         0.651534         1.304027
 C         3.215565         1.240340         0.392214
 O         4.525914         1.331561         0.950618
 C         2.607525         2.167583        -0.666220
 C         1.887952         0.903596        -1.153257
 C         3.135038         0.027035        -0.718283
 O         2.373973        -1.007863        -0.161770
 H         0.166832        -1.508871         0.807894
 H        -0.773492         0.065491         0.585935
 H        -0.231088        -0.940526        -0.925091
 H         1.378076         1.539126         1.826616
 H         2.307028         0.053471         2.174901
 H         4.760957         2.185918         1.127811
 H         2.028929         3.063957        -0.386693
 H         3.319217         2.499102        -1.466230
 H         1.239236         0.677772        -2.045153
 H         4.165244        -0.189873        -1.062694
