19
Iteration:   216
 C        -0.143386        -0.310577         0.080670
 C         1.371134        -0.029783         0.073171
 C         1.965838         0.645717         1.274240
 C         3.273939         1.091159         0.488447
 O         4.582223         1.389768         1.075006
 C         2.640109         2.114256        -0.672301
 C         1.989141         0.880488        -1.129505
 C         3.189110        -0.053708        -0.626613
 O         2.340171        -1.068435        -0.211086
 H        -0.583262        -0.494576         1.089104
 H        -0.620770         0.625351        -0.306659
 H        -0.304650        -1.121679        -0.821581
 H         1.271346         1.478729         1.598784
 H         2.171896        -0.054907         2.113880
 H         4.900088         2.296046         0.957235
 H         1.983366         3.010442        -0.513259
 H         3.386533         2.311542        -1.477841
 H         1.442557         0.853735        -2.023387
 H         4.126713        -0.353863        -1.097804
