19
Iteration:   637
 C        -0.075931        -0.398887         0.015542
 C         1.347678         0.057872         0.117326
 C         2.055893         0.694286         1.353729
 C         3.269620         1.118168         0.421261
 O         4.513890         1.339741         0.987439
 C         2.595194         2.148210        -0.734634
 C         1.971113         0.893178        -1.140086
 C         3.176364        -0.022872        -0.658828
 O         2.337926        -1.045801        -0.093252
 H        -0.308694        -0.921059         0.999487
 H        -0.713846         0.450975        -0.254970
 H        -0.066972        -0.994690        -0.827043
 H         1.420509         1.498541         1.951528
 H         2.363328        -0.247947         1.852978
 H         4.346246         1.626814         1.947257
 H         2.143264         3.089552        -0.422349
 H         3.325718         2.336220        -1.538669
 H         1.595169         0.703004        -2.202635
 H         4.145394        -0.371811        -1.111526
