19
Iteration:  1304charge 0 multiplicity 1
 C        -0.083642        -0.434028         0.081814
 C         1.363162        -0.001409         0.141276
 C         2.028613         0.640143         1.319173
 C         3.223111         1.162571         0.473520
 O         4.537700         1.506441         0.966799
 C         2.696136         2.151601        -0.673025
 C         1.923181         0.893392        -1.153186
 C         3.154025        -0.058462        -0.688281
 O         2.300043        -1.067627        -0.187150
 H        -0.406601        -1.266853         0.796233
 H        -0.533457         0.502579         0.185611
 H        -0.302040        -0.676295        -0.915423
 H         1.487773         1.461334         1.889497
 H         2.343401        -0.140225         1.899638
 H         4.871831         1.013002         1.788836
 H         2.200628         3.057700        -0.454371
 H         3.602247         2.278223        -1.228550
 H         1.551561         0.642882        -2.124654
 H         4.079345        -0.380049        -1.137747
