19
Iteration:   790charge 0 multiplicity 1
 C        -0.163811        -0.370681         0.078741
 C         1.312684         0.039209         0.049136
 C         2.049158         0.698123         1.323324
 C         3.242979         1.151902         0.457456
 O         4.577116         1.396709         1.018564
 C         2.651402         2.115357        -0.702643
 C         2.001286         0.800889        -1.172225
 C         3.143068        -0.006477        -0.636373
 O         2.368425        -1.073447        -0.196100
 H        -0.256127        -0.697903         1.264521
 H        -0.798795         0.477933        -0.271194
 H        -0.295341        -1.240726        -0.472704
 H         1.518196         1.443864         1.866373
 H         2.296043        -0.085354         1.999975
 H         4.414326         1.761606         1.866463
 H         1.984008         2.914262        -0.368956
 H         3.475242         2.358851        -1.398545
 H         1.569295         0.652855        -2.136806
 H         4.084859        -0.146794        -1.091889
