19
Iteration:  2009charge 0 multiplicity 1
 C        -0.042799        -0.538981         0.106849
 C         1.351529         0.032957         0.134033
 C         2.080989         0.715200         1.273849
 C         3.290944         1.104487         0.345668
 O         4.501920         1.468706         0.966772
 C         2.603496         2.178387        -0.601708
 C         1.983163         0.880595        -1.137835
 C         3.144931         0.006636        -0.711916
 O         2.312010        -1.064497        -0.141612
 H        -0.052707        -1.486791         0.697868
 H        -0.863619         0.163827         0.315787
 H        -0.302780        -0.976475        -0.853338
 H         1.580859         1.626855         1.891805
 H         2.457156         0.086349         2.072023
 H         4.510962         1.015107         1.840408
 H         1.939765         2.930285        -0.140206
 H         3.134970         2.836776        -1.315776
 H         1.517375         0.844197        -2.137912
 H         4.067709        -0.302061        -1.293557
