19
Iteration:  1577charge 0 multiplicity 1
 C        -0.083748        -0.428591         0.173987
 C         1.365429         0.032013         0.004340
 C         2.118436         0.633615         1.240005
 C         3.266323         1.165313         0.391107
 O         4.526746         1.463745         1.016658
 C         2.561886         2.169864        -0.573627
 C         1.950548         0.838036        -1.198150
 C         3.171854         0.000335        -0.690041
 O         2.313690        -1.060133        -0.171404
 H        -0.331250        -0.753692         1.280369
 H        -0.666504         0.391488        -0.176624
 H        -0.126458        -1.307592        -0.519376
 H         1.566013         1.327658         1.956957
 H         2.271441        -0.186446         1.840943
 H         4.506052         1.123556         1.970370
 H         2.044872         2.981093        -0.043284
 H         3.328253         2.425559        -1.334448
 H         1.581116         0.714938        -2.276695
 H         4.128554        -0.342047        -1.209371
