19
Iteration:  3652charge 0 multiplicity 1
 C        -0.049570        -0.417839         0.251523
 C         1.359135         0.030997         0.082086
 C         2.115842         0.565275         1.224624
 C         3.267124         1.144224         0.401295
 O         4.433705         1.551273         1.076781
 C         2.598552         2.115774        -0.674642
 C         1.973173         0.772359        -1.177748
 C         3.153215         0.025546        -0.722296
 O         2.337682        -1.098432        -0.174938
 H        -0.205365        -1.334251         1.045678
 H        -0.655650         0.437187         0.679554
 H        -0.451500        -0.827760        -0.805028
 H         1.810834         1.377658         1.966532
 H         2.475048        -0.288746         1.794407
 H         4.647187         2.460889         0.732990
 H         2.089704         3.046321        -0.316699
 H         3.367682         2.418361        -1.442086
 H         1.477986         0.668681        -2.124188
 H         4.046903        -0.288879        -1.384099
