19
Iteration:   553
 C        -0.113516        -0.377755         0.218505
 C         1.333667         0.048489         0.063312
 C         2.116951         0.631538         1.246879
 C         3.297131         1.080184         0.449455
 O         4.392199         1.395798         1.194720
 C         2.718128         2.157506        -0.779907
 C         2.039788         0.863771        -1.236540
 C         3.191940        -0.061556        -0.753113
 O         2.283785        -1.027162        -0.206515
 H        -0.173136        -1.182519         0.892791
 H        -0.766125         0.341295         0.640321
 H        -0.541287        -0.956545        -0.682286
 H         1.760808         1.469745         1.631935
 H         2.230087        -0.065039         2.021204
 H         4.301907         2.343277         1.441383
 H         2.115650         3.043007        -0.519090
 H         3.640617         2.495739        -1.247483
 H         1.444187         0.713112        -2.129828
 H         4.119074        -0.457194        -1.172509
