19
Iteration:  1510charge 0 multiplicity 1
 C        -0.083886        -0.496656         0.180681
 C         1.306704         0.094350         0.059290
 C         2.127068         0.602304         1.276017
 C         3.272551         1.146954         0.390494
 O         4.470975         1.523204         1.092313
 C         2.646320         2.186456        -0.677556
 C         1.981291         0.881472        -1.209872
 C         3.182374        -0.018212        -0.693393
 O         2.289617        -1.064643        -0.186531
 H        -0.277796        -1.105655         1.148377
 H        -0.836127         0.313836         0.149571
 H        -0.373312        -1.142475        -0.599326
 H         1.634028         1.379514         1.843979
 H         2.344316        -0.221461         1.922505
 H         4.898358         0.747951         1.491973
 H         2.155898         3.072940        -0.351615
 H         3.440344         2.330367        -1.391432
 H         1.590621         0.733468        -2.198790
 H         4.019695        -0.440334        -1.225507
