19
Iteration:  1177
 C        -0.120470        -0.382422        -0.023081
 C         1.345149        -0.018234         0.125889
 C         2.073382         0.787516         1.336372
 C         3.286531         1.069144         0.420019
 O         4.500151         1.509127         0.926402
 C         2.652068         2.042537        -0.546486
 C         1.967765         0.835132        -1.073007
 C         3.170885        -0.005428        -0.648092
 O         2.329037        -1.090212        -0.190137
 H        -0.536487        -0.746567         0.829403
 H        -0.744975         0.481435        -0.313553
 H        -0.148085        -1.280334        -0.727150
 H         1.435338         1.648791         1.552578
 H         2.333929         0.216899         2.386223
 H         5.005367         0.854130         1.560518
 H         2.083659         2.987979        -0.374355
 H         3.363420         2.440478        -1.279834
 H         1.459128         0.737251        -1.987642
 H         3.936426        -0.227270        -1.334792
