19
Iteration:  4049charge 0 multiplicity 1
 C        -0.016472        -0.568275         0.219966
 C         1.392496        -0.037016         0.083515
 C         2.038166         0.770887         1.285365
 C         3.293614         1.211046         0.367934
 O         4.477197         1.422280         1.018012
 C         2.606477         2.163722        -0.614937
 C         1.850951         0.875271        -1.130088
 C         3.170531         0.069490        -0.777026
 O         2.379005        -1.076828        -0.170514
 H        -0.423552        -0.673255         1.355219
 H        -0.788708         0.105031        -0.284514
 H        -0.045228        -1.561148        -0.173929
 H         1.470830         1.717200         1.417265
 H         2.226817         0.199167         2.103357
 H         4.888249         0.597317         1.068304
 H         2.107570         3.038377        -0.137631
 H         3.250563         2.561470        -1.417543
 H         1.565820         0.587055        -2.144743
 H         3.977808        -0.161720        -1.370546
