19
Iteration:    32
 C        -0.152811        -0.314597        -0.058691
 C         1.349866         0.048880         0.107102
 C         2.056223         0.810240         1.239695
 C         3.343814         1.121183         0.473377
 O         4.598482         1.368945         0.971522
 C         2.633758         2.047586        -0.616068
 C         2.029060         0.765024        -1.132225
 C         3.111794        -0.051918        -0.596496
 O         2.255562        -1.104706        -0.086652
 H        -0.715438        -0.786962         0.694983
 H        -0.738377         0.545015        -0.258902
 H        -0.052291        -0.839372        -1.047180
 H         1.520233         1.634120         1.670652
 H         2.279274         0.146544         2.056493
 H         4.558910         2.118688         1.694824
 H         1.890790         2.745961        -0.184981
 H         3.339137         2.556258        -1.298150
 H         1.728787         0.696919        -2.153705
 H         4.025150        -0.418745        -1.137118
