19
Iteration:  4782
 C        -0.092460        -0.404179         0.333386
 C         1.413939        -0.078594         0.070486
 C         2.126984         0.674580         1.244504
 C         3.258529         1.127136         0.385798
 O         4.496340         1.445684         1.062964
 C         2.558948         2.105551        -0.614697
 C         1.906798         0.823098        -1.117405
 C         3.156566         0.019887        -0.823318
 O         2.384287        -1.073540        -0.278861
 H        -0.505259         0.532949         0.664044
 H        -0.614914        -0.590009        -0.611317
 H        -0.327715        -1.287339         0.907582
 H         1.621539         1.626054         1.635657
 H         2.337262        -0.097241         1.923544
 H         4.766366         2.404490         0.919462
 H         2.001443         2.877952        -0.061035
 H         3.259505         2.646519        -1.205234
 H         1.280455         0.783825        -1.963966
 H         4.100760        -0.317917        -1.311818
