19
Iteration:  1471
 C        -0.044271        -0.420356         0.075708
 C         1.366498        -0.066982         0.104816
 C         1.949059         0.716171         1.261375
 C         3.314886         1.114642         0.413688
 O         4.563030         1.500137         0.921439
 C         2.595940         2.131278        -0.530176
 C         1.916826         0.862345        -1.100054
 C         3.186277        -0.018780        -0.681025
 O         2.355295        -1.131912        -0.162363
 H        -0.147011        -1.378651         0.531041
 H        -0.563707         0.473740         0.574470
 H        -0.450349        -0.345960        -1.033622
 H         1.541871         1.816683         1.430549
 H         2.027094         0.169687         2.216691
 H         4.516771         0.984207         1.835184
 H         2.167581         3.173515        -0.357063
 H         3.344421         2.528711        -1.293569
 H         1.322026         0.862116        -2.072305
 H         4.087704        -0.248358        -1.318629
