19
Iteration:  1485
 C        -0.026767        -0.450104         0.077452
 C         1.390388         0.017981         0.057252
 C         2.066191         0.805455         1.261459
 C         3.286581         1.108502         0.449745
 O         4.516696         1.500161         0.984242
 C         2.603658         2.122321        -0.550934
 C         1.967973         0.842259        -1.103070
 C         3.120509        -0.062101        -0.713558
 O         2.315433        -1.091616        -0.202224
 H        -0.246335        -1.366343         0.731773
 H        -0.769062         0.374977         0.554921
 H        -0.449833        -0.766436        -0.952313
 H         1.423574         1.571901         1.428326
 H         2.141689         0.263345         2.249359
 H         4.913371         0.997962         1.622074
 H         1.935135         2.746805         0.074144
 H         3.301342         2.535080        -1.306963
 H         1.565784         0.676234        -2.104682
 H         3.929479        -0.424222        -1.361760
