19
Iteration:  2436charge 0 multiplicity 1
 C        -0.013201        -0.478997         0.124519
 C         1.361931        -0.031452         0.070192
 C         2.033678         0.777138         1.241214
 C         3.342664         1.133769         0.359296
 O         4.541391         1.535663         0.983279
 C         2.566657         2.118382        -0.484339
 C         1.929250         0.784805        -1.064915
 C         3.103119         0.010920        -0.719312
 O         2.354776        -1.075475        -0.231859
 H        -0.135395        -1.520476         0.577998
 H        -0.527247         0.127685         0.771641
 H        -0.324050        -0.633303        -0.934467
 H         1.451242         1.691259         1.337463
 H         2.189391         0.176446         2.289843
 H         4.875089         0.691628         1.500786
 H         1.904181         2.911237        -0.024717
 H         3.080123         2.617686        -1.337669
 H         1.284342         0.857350        -1.930643
 H         3.937107        -0.298870        -1.405329
