19
Iteration:   755
 C        -0.069333        -0.465694        -0.044236
 C         1.326148         0.103985         0.116851
 C         2.014201         0.840698         1.269337
 C         3.301322         1.110948         0.407316
 O         4.563566         1.341146         0.962888
 C         2.660870         2.139758        -0.606557
 C         1.966460         0.862222        -1.091886
 C         3.093918        -0.104188        -0.685031
 O         2.368447        -1.111860        -0.094734
 H        -0.301391        -1.034194         1.063302
 H        -0.947911         0.276107         0.011857
 H        -0.240645        -1.166202        -0.937974
 H         1.487309         1.722217         1.449903
 H         2.161542         0.194907         2.105561
 H         4.349341         1.877170         1.673187
 H         2.157462         2.969353        -0.020379
 H         3.361130         2.743462        -1.236594
 H         1.429052         0.907364        -2.052974
 H         4.073474        -0.267753        -1.147090
