19
Iteration:  2941
 C        -0.021117        -0.509949         0.240643
 C         1.388001        -0.074182         0.103428
 C         2.006781         0.730018         1.288388
 C         3.292986         1.167504         0.476008
 O         4.489836         1.481340         0.994466
 C         2.629098         2.150061        -0.562511
 C         1.856720         0.883417        -1.137179
 C         3.097535         0.104678        -0.758261
 O         2.423496        -1.119695        -0.309917
 H        -0.231046        -0.948990         1.190898
 H        -0.689368         0.244201        -0.073967
 H        -0.379317        -1.220205        -0.546882
 H         1.421945         1.600488         1.506286
 H         2.395669        -0.018308         2.197194
 H         5.015541         0.614588         1.182988
 H         2.050078         3.016823        -0.143920
 H         3.434590         2.380531        -1.270477
 H         1.423300         0.891580        -2.152643
 H         3.903826        -0.008138        -1.459031
