19
Iteration:  4230
 C        -0.034977        -0.573463         0.226540
 C         1.317575         0.023796         0.098048
 C         2.096779         0.761817         1.268391
 C         3.316275         1.136981         0.350917
 O         4.485112         1.642946         1.064045
 C         2.666446         2.102336        -0.681154
 C         1.895566         0.832586        -1.137849
 C         3.151354        -0.074045        -0.737504
 O         2.269627        -1.067224        -0.204561
 H         0.029429        -1.641458         0.414923
 H        -0.669452        -0.045183         0.929819
 H        -0.786848        -0.446500        -0.738554
 H         1.724497         1.526748         1.882143
 H         2.264919        -0.121796         1.998672
 H         5.192869         0.944226         1.279800
 H         2.171470         2.968019        -0.245923
 H         3.528528         2.243946        -1.352193
 H         1.395070         0.942509        -2.068306
 H         4.117320        -0.337868        -1.311291
