19
Iteration:  1587charge 0 multiplicity 1
 C        -0.085611        -0.406088         0.113573
 C         1.330914         0.043013         0.055728
 C         2.113845         0.602061         1.305289
 C         3.222882         1.117640         0.437662
 O         4.487955         1.459498         0.965459
 C         2.631354         2.166258        -0.623888
 C         1.956497         0.890417        -1.156070
 C         3.144417        -0.000966        -0.663941
 O         2.385827        -1.052959        -0.175744
 H        -0.292413        -0.950171         1.125927
 H        -0.910712         0.243187        -0.094234
 H        -0.282194        -1.208054        -0.600530
 H         1.733318         1.388947         1.884790
 H         2.481547        -0.239686         1.784543
 H         4.650045         1.217725         1.974334
 H         1.960546         2.991619        -0.462273
 H         3.361962         2.567294        -1.338946
 H         1.451474         0.705223        -2.152434
 H         4.053324        -0.408877        -1.189403
