19
Iteration:  2001
 C        -0.071506        -0.521177         0.118613
 C         1.368674        -0.014676         0.107888
 C         2.085571         0.735423         1.270138
 C         3.299852         1.152152         0.359122
 O         4.530944         1.471285         0.987747
 C         2.554817         2.146059        -0.586320
 C         1.951449         0.884543        -1.100649
 C         3.150671        -0.006199        -0.729558
 O         2.335432        -1.027393        -0.183763
 H        -0.137046        -1.368006         0.947672
 H        -0.893820         0.165131         0.252484
 H        -0.159296        -0.982780        -0.923561
 H         1.505311         1.662243         1.499294
 H         2.262816         0.116666         2.241514
 H         4.603005         0.935112         1.764727
 H         1.961927         2.831805         0.017754
 H         3.322802         2.546914        -1.302385
 H         1.498103         0.705093        -2.140242
 H         4.060015        -0.466398        -1.304992
