19
Iteration:  2250
 C        -0.088760        -0.490174         0.216460
 C         1.271685         0.030247         0.128832
 C         2.096013         0.627528         1.350794
 C         3.287183         1.163515         0.411838
 O         4.440435         1.557502         1.026283
 C         2.634867         2.088880        -0.709500
 C         1.986275         0.858609        -1.224202
 C         3.258812         0.065986        -0.724105
 O         2.307818        -1.069958        -0.242574
 H        -0.239605        -1.536281         0.633645
 H        -0.654409         0.090766         0.979081
 H        -0.469861        -0.477015        -0.833398
 H         1.682332         1.380233         2.039356
 H         2.489918        -0.254609         1.745059
 H         4.765928         0.849430         1.609227
 H         2.030009         2.877137        -0.303981
 H         3.439704         2.501012        -1.345593
 H         1.367651         0.697754        -2.094653
 H         4.217530        -0.299789        -1.184322
