19
Iteration:   540charge 0 multiplicity 1
 C        -0.144318        -0.365130         0.228678
 C         1.378013         0.063413         0.049918
 C         2.022008         0.748406         1.217487
 C         3.321645         1.078056         0.392089
 O         4.447343         1.423110         1.204382
 C         2.699804         2.102146        -0.674224
 C         2.070299         0.827035        -1.168505
 C         3.175440        -0.069981        -0.724751
 O         2.309387        -1.120363        -0.261265
 H        -0.078387        -1.305743         0.808367
 H        -0.743884         0.414032         0.680093
 H        -0.552287        -0.406357        -0.771390
 H         1.380065         1.567045         1.591725
 H         2.281381         0.014325         1.982971
 H         4.372807         2.390865         1.341722
 H         1.985127         2.811227        -0.266765
 H         3.304960         2.568975        -1.460042
 H         1.596727         0.617045        -2.217334
 H         4.032786        -0.378378        -1.433019
