19
Iteration:  4697
 C        -0.044519        -0.520528         0.238573
 C         1.385375        -0.053783         0.099944
 C         2.057887         0.760301         1.339914
 C         3.224353         1.195758         0.342696
 O         4.532451         1.216250         0.905585
 C         2.507127         2.193665        -0.618678
 C         1.930948         0.877072        -1.128079
 C         3.147430         0.102713        -0.741695
 O         2.445199        -1.018839        -0.212777
 H        -0.591328         0.413280         0.055657
 H        -0.324540        -1.287127        -0.484402
 H        -0.284236        -0.935640         1.359933
 H         1.489199         1.607025         1.705115
 H         2.388190         0.177590         2.239126
 H         4.624626         1.689243         1.774643
 H         1.978813         2.915320         0.020775
 H         3.201164         2.567560        -1.387298
 H         1.388260         0.792698        -2.062834
 H         3.947517        -0.015532        -1.517167
