19
Iteration:  2564
 C        -0.098669        -0.461600         0.129164
 C         1.370699        -0.039268         0.127187
 C         2.116851         0.555643         1.364776
 C         3.263487         1.197153         0.435978
 O         4.533906         1.562427         0.917895
 C         2.588905         2.111415        -0.534316
 C         1.914279         0.913873        -1.159579
 C         3.124244         0.035290        -0.720651
 O         2.366739        -1.096810        -0.252373
 H        -0.277204        -0.766555         1.150783
 H        -0.776612         0.383438        -0.328619
 H        -0.361146        -1.267906        -0.561719
 H         1.580668         1.347120         1.835410
 H         2.416215        -0.184496         2.110372
 H         4.775319         0.816083         1.369467
 H         1.941481         2.987324        -0.239447
 H         3.346040         2.470524        -1.311377
 H         1.418280         0.905616        -2.110200
 H         4.128595        -0.132121        -1.087381
