19
Iteration:  2561charge 0 multiplicity 1
 C        -0.118349        -0.450406         0.132936
 C         1.364720        -0.031670         0.132945
 C         2.131102         0.522991         1.378076
 C         3.265569         1.196057         0.444321
 O         4.521802         1.556622         0.909251
 C         2.581776         2.087131        -0.540314
 C         1.924662         0.926921        -1.175442
 C         3.137407         0.066588        -0.727599
 O         2.375840        -1.085496        -0.250162
 H        -0.329190        -0.760791         1.141211
 H        -0.822215         0.376829        -0.280784
 H        -0.270363        -1.300545        -0.553250
 H         1.476015         1.389064         1.943992
 H         2.462008        -0.178967         2.099458
 H         4.818869         0.761583         1.496098
 H         2.039214         3.015048        -0.373333
 H         3.218762         2.543953        -1.350542
 H         1.451094         0.802457        -2.153608
 H         4.110589        -0.237901        -1.068009
