19
Iteration:   897
 C        -0.070909        -0.463888        -0.017666
 C         1.319516         0.044847         0.153627
 C         1.992435         0.829541         1.237375
 C         3.317842         1.165235         0.347910
 O         4.556705         1.317292         0.979202
 C         2.664924         2.123568        -0.654151
 C         1.969137         0.830032        -1.052740
 C         3.189163        -0.041863        -0.621184
 O         2.314802        -1.061148        -0.105200
 H        -0.041136        -1.403062         0.507830
 H        -0.824092         0.089271         0.576144
 H        -0.357298        -0.675487        -1.037168
 H         1.249998         1.723627         1.312145
 H         2.128781         0.285001         2.179151
 H         4.605458         1.896193         1.691785
 H         2.072300         2.898491        -0.125695
 H         3.227362         2.786576        -1.330746
 H         1.532396         0.614783        -1.973210
 H         3.841215        -0.416247        -1.310496
