19
Iteration:  1388charge 0 multiplicity 1
 C        -0.116341        -0.424851         0.278191
 C         1.349528        -0.048057         0.061277
 C         2.005232         0.680414         1.218855
 C         3.314339         1.120710         0.423460
 O         4.429083         1.537494         1.102361
 C         2.775766         2.044921        -0.643067
 C         1.946982         0.896962        -1.192002
 C         3.189810         0.021985        -0.746210
 O         2.332900        -1.098722        -0.289785
 H        -0.380706        -0.749688         1.295328
 H        -0.775505         0.503585         0.345579
 H        -0.468936        -1.146652        -0.475369
 H         1.363514         1.486173         1.593918
 H         2.305044         0.038364         2.158268
 H         4.888105         0.955746         1.636493
 H         2.249473         2.953175        -0.265423
 H         3.473160         2.396929        -1.420478
 H         1.379657         0.890707        -2.167179
 H         4.148172        -0.099869        -1.323750
