19
Iteration:  1357
 C        -0.079036        -0.414671         0.114454
 C         1.401331         0.056188         0.055367
 C         2.089235         0.686327         1.305271
 C         3.284257         1.211910         0.412147
 O         4.485376         1.441123         1.054706
 C         2.601267         2.127496        -0.626170
 C         1.999487         0.848801        -1.204969
 C         3.154689        -0.002714        -0.728441
 O         2.272222        -1.126176        -0.155243
 H        -0.205639        -0.675859         1.159354
 H        -0.765051         0.294152        -0.230186
 H        -0.151606        -1.187667        -0.502380
 H         1.513407         1.505623         1.940219
 H         2.450707        -0.121810         2.030631
 H         4.993100         0.614594         1.460172
 H         1.868937         2.816020        -0.298825
 H         3.260958         2.644940        -1.282432
 H         1.375819         0.898839        -2.119658
 H         4.078789        -0.231293        -1.290674
