19
Iteration:  1766charge 0 multiplicity 1
 C        -0.078271        -0.366922         0.161116
 C         1.362526        -0.020337         0.063952
 C         2.047907         0.657962         1.222453
 C         3.293633         1.159058         0.428667
 O         4.517816         1.547044         0.962325
 C         2.626519         2.091463        -0.492929
 C         1.931545         0.820899        -1.113811
 C         3.162543         0.035632        -0.736470
 O         2.386341        -1.161807        -0.212813
 H        -0.372485        -0.734214         1.182128
 H        -0.803922         0.486865        -0.208352
 H        -0.256900        -1.189325        -0.646919
 H         1.366662         1.580115         1.421753
 H         2.049548         0.074956         2.047713
 H         4.732544         0.825786         1.708869
 H         1.857234         2.724950         0.036330
 H         3.217080         2.551291        -1.321523
 H         1.525808         0.936696        -2.124914
 H         4.026615        -0.199717        -1.295209
