19
Iteration:  1086charge 0 multiplicity 1
 C        -0.115105        -0.473003         0.196608
 C         1.343267         0.055571         0.053737
 C         2.018973         0.734394         1.230226
 C         3.288469         1.137539         0.387886
 O         4.487340         1.480008         1.107084
 C         2.784686         2.067778        -0.716147
 C         1.945494         0.818213        -1.198595
 C         3.181452         0.011272        -0.664005
 O         2.278998        -1.043061        -0.197837
 H        -0.108732        -1.451323         0.778895
 H        -0.664512         0.233072         0.741073
 H        -0.497536        -0.752388        -0.725059
 H         1.465365         1.522933         1.930513
 H         2.437767        -0.053647         1.886620
 H         4.245635         1.279163         2.012652
 H         2.443897         3.107814        -0.537727
 H         3.597582         2.231003        -1.494941
 H         1.340731         0.686798        -2.122552
 H         4.068118        -0.257134        -1.306339
