19
Iteration:   268
 C        -0.103160        -0.415887         0.203235
 C         1.362368         0.086987         0.041570
 C         2.117828         0.710984         1.219419
 C         3.262612         1.173077         0.423567
 O         4.380576         1.419776         1.300035
 C         2.774764         2.172091        -0.761702
 C         1.934012         0.858094        -1.275042
 C         3.166981        -0.094048        -0.701751
 O         2.269031        -1.097263        -0.253327
 H        -0.096687        -1.017572         1.160183
 H        -0.724499         0.401004         0.426952
 H        -0.335229        -1.124576        -0.520043
 H         1.383444         1.481499         1.696805
 H         2.407019        -0.140352         1.947523
 H         5.253029         1.308761         1.066612
 H         2.364960         3.126299        -0.434806
 H         3.600051         2.236661        -1.486135
 H         1.253165         0.846139        -2.178868
 H         4.263633        -0.417816        -1.023882
