19
Iteration:  2961
 C        -0.061989        -0.530211         0.210104
 C         1.376404        -0.002219         0.114602
 C         2.072620         0.697224         1.222434
 C         3.302362         1.120084         0.347500
 O         4.505394         1.484079         1.011858
 C         2.526002         2.199970        -0.510724
 C         1.937114         0.860633        -1.099347
 C         3.198036        -0.004571        -0.823680
 O         2.355443        -1.057670        -0.242494
 H        -0.212368        -0.773602         1.255745
 H        -0.699328         0.182056        -0.198592
 H        -0.246458        -1.361501        -0.496173
 H         1.611935         1.640743         1.565374
 H         2.406726        -0.032076         2.116235
 H         4.789467         0.685896         1.618339
 H         1.831674         2.858783         0.011633
 H         3.143065         2.815164        -1.165521
 H         1.276002         1.007981        -1.955970
 H         4.079665        -0.180534        -1.407335
