19
Iteration:  3672charge 0 multiplicity 1
 C        -0.093018        -0.492232         0.314008
 C         1.360768        -0.020156         0.020582
 C         2.113158         0.672427         1.315066
 C         3.271295         1.158416         0.412841
 O         4.429664         1.580498         1.073485
 C         2.691574         2.063099        -0.698722
 C         1.934000         0.880851        -1.167780
 C         3.160577        -0.069003        -0.726716
 O         2.334803        -1.097389        -0.267084
 H         0.041160        -1.466295         0.655879
 H        -0.533188         0.249495         0.938482
 H        -0.668230        -0.634746        -0.627936
 H         1.367980         1.422919         1.726038
 H         2.485441        -0.075850         2.143215
 H         4.664039         2.597218         1.006940
 H         2.110862         2.935704        -0.363158
 H         3.455290         2.397904        -1.393377
 H         1.487001         0.805290        -2.121071
 H         4.053480        -0.531025        -1.309144
