19
Iteration:  3932charge 0 multiplicity 1
 C        -0.027976        -0.483272         0.260109
 C         1.392411        -0.003636         0.082252
 C         2.117426         0.707561         1.253506
 C         3.266911         1.163703         0.411540
 O         4.463198         1.478915         1.025152
 C         2.614476         2.121245        -0.655413
 C         1.940669         0.814752        -1.150535
 C         3.141454         0.007619        -0.766955
 O         2.359802        -1.108295        -0.225340
 H        -0.295469        -1.536199         0.364242
 H        -0.478088         0.004475         1.218264
 H        -0.659829        -0.177714        -0.564609
 H         1.537516         1.657851         1.592206
 H         2.363358        -0.089831         2.068775
 H         4.414259         2.288549         1.566018
 H         1.830156         2.751630        -0.193952
 H         3.250294         2.628927        -1.383641
 H         1.443351         0.556188        -2.084628
 H         4.045537        -0.201227        -1.407821
