19
Iteration:   233charge 0 multiplicity 1
 C        -0.121853        -0.340050         0.159806
 C         1.386001         0.008815         0.031080
 C         2.030012         0.789728         1.184543
 C         3.300751         1.138896         0.409648
 O         4.433559         1.391015         1.137620
 C         2.711271         2.120785        -0.536490
 C         2.007062         0.799939        -1.170655
 C         3.189433        -0.072993        -0.677791
 O         2.294190        -1.176828        -0.265398
 H        -0.310419        -0.503301         1.245954
 H        -0.775770         0.451868        -0.162289
 H        -0.474873        -1.106524        -0.398271
 H         1.539166         1.720670         1.460734
 H         2.200341         0.187306         2.111630
 H         4.697007         2.245712         0.831450
 H         2.187733         2.904970        -0.000023
 H         3.439957         2.638114        -1.162038
 H         1.611580         0.758061        -2.255629
 H         4.165437        -0.327066        -1.236585
