19
Iteration:  2828
 C         0.022828        -0.460871         0.220582
 C         1.373167         0.027360         0.078819
 C         2.133049         0.665202         1.259207
 C         3.339181         1.132223         0.347876
 O         4.495908         1.475349         1.021079
 C         2.519905         2.179234        -0.567522
 C         1.902833         0.874211        -1.172699
 C         3.119289         0.028671        -0.735285
 O         2.326556        -1.113919        -0.245248
 H         0.094325        -1.351623         0.853669
 H        -0.625023         0.258157         0.627065
 H        -0.372386        -0.842081        -0.695019
 H         1.488109         1.614430         1.706813
 H         2.384228        -0.293987         1.922335
 H         4.352655         1.317312         2.037247
 H         1.819477         2.805288        -0.069562
 H         3.274936         2.583727        -1.191877
 H         1.448148         0.786866        -2.195753
 H         4.013616        -0.256379        -1.397383
