19
Iteration:    39
 C        -0.116712        -0.271489        -0.041887
 C         1.288222         0.112555         0.147008
 C         2.008920         0.702920         1.253576
 C         3.285122         1.120405         0.450529
 O         4.603039         1.346197         0.979740
 C         2.645692         2.011370        -0.641633
 C         2.032354         0.749389        -1.126305
 C         3.172112        -0.024172        -0.587064
 O         2.284184        -1.035815        -0.085591
 H        -0.602496        -1.046027         0.656987
 H        -0.633991         0.668867        -0.394631
 H        -0.139894        -1.000257        -0.945133
 H         1.552840         1.674013         1.585457
 H         2.194876        -0.073000         2.043045
 H         4.562032         2.285439         1.378338
 H         1.972345         2.791043        -0.204557
 H         3.430261         2.504931        -1.270011
 H         1.616920         0.502742        -2.135786
 H         4.023815        -0.338840        -1.271287
