19
Iteration:  2153charge 0 multiplicity 1
 C        -0.079783        -0.523486         0.082089
 C         1.361034         0.041308         0.095241
 C         2.097491         0.754548         1.317438
 C         3.280546         1.128391         0.398674
 O         4.513695         1.465739         0.921532
 C         2.589508         2.100650        -0.537528
 C         1.882060         0.899276        -1.088709
 C         3.200750        -0.015322        -0.715883
 O         2.379034        -1.063626        -0.180677
 H        -0.533049        -0.884411         1.018351
 H        -0.719393         0.192433        -0.267834
 H        -0.044651        -1.389436        -0.563925
 H         1.521135         1.687335         1.767836
 H         2.294676        -0.022173         1.974790
 H         4.622669         0.930747         1.658098
 H         1.864657         2.761498        -0.122792
 H         3.236399         2.640326        -1.218187
 H         1.389512         0.926469        -2.076323
 H         4.067939        -0.143939        -1.451351
