19
Iteration:   254
 C        -0.048101        -0.374393         0.263086
 C         1.332518         0.075443        -0.016952
 C         2.052408         0.695452         1.182205
 C         3.332821         1.095697         0.396211
 O         4.365849         1.427318         1.323647
 C         2.721315         2.069355        -0.681137
 C         2.022045         0.871482        -1.233418
 C         3.180613        -0.094972        -0.778241
 O         2.263408        -1.032566        -0.211732
 H        -0.129032        -0.812737         1.272240
 H        -0.829696         0.383090         0.065636
 H        -0.276040        -1.161472        -0.411871
 H         1.679476         1.593471         1.617103
 H         2.174964        -0.057383         1.967511
 H         5.060487         1.819733         0.650418
 H         2.081263         2.886113        -0.330148
 H         3.466521         2.507692        -1.349346
 H         1.535283         0.836375        -2.284383
 H         3.996672        -0.615556        -1.368829
