19
Iteration:  2175
 C        -0.028328        -0.489643         0.145053
 C         1.342545        -0.028910         0.104711
 C         2.118548         0.608606         1.279809
 C         3.248811         1.198457         0.405645
 O         4.546870         1.473295         0.988947
 C         2.582578         2.209026        -0.639980
 C         1.974082         0.853133        -1.178241
 C         3.111272         0.072496        -0.718400
 O         2.296234        -1.074740        -0.163898
 H        -0.291239        -0.931402         1.133345
 H        -0.655781         0.299022        -0.065974
 H        -0.121477        -1.338731        -0.532939
 H         1.554989         1.346268         2.066530
 H         2.397657        -0.275260         1.789958
 H         4.476367         0.913473         1.887239
 H         2.039907         3.056028        -0.308613
 H         3.288307         2.512866        -1.400231
 H         1.465661         0.635381        -2.131037
 H         4.119892         0.087233        -1.236154
