19
Iteration:  1500
 C        -0.114304        -0.488287         0.135006
 C         1.328107         0.069445         0.093575
 C         2.066106         0.705361         1.273602
 C         3.288141         1.169920         0.383186
 O         4.504057         1.538709         1.055559
 C         2.659951         2.107784        -0.587428
 C         1.994338         0.835821        -1.206013
 C         3.186187        -0.027401        -0.710905
 O         2.274964        -1.094068        -0.205017
 H        -0.144093        -1.189248         1.039357
 H        -0.778327         0.285326         0.361882
 H        -0.139331        -0.957444        -0.770921
 H         1.715155         1.623451         1.892119
 H         2.351055        -0.085123         1.932070
 H         4.742433         0.621652         1.468377
 H         1.939454         2.813902        -0.272140
 H         3.401335         2.585780        -1.273175
 H         1.418720         0.827538        -2.127144
 H         4.081862        -0.350463        -1.243560
