19
Iteration:  3621charge 0 multiplicity 1
 C        -0.038664        -0.426308         0.162289
 C         1.397525        -0.067747         0.116811
 C         2.068719         0.742984         1.278640
 C         3.292820         1.110690         0.423504
 O         4.501532         1.506011         1.061716
 C         2.464009         2.170019        -0.599136
 C         1.946298         0.802099        -1.084442
 C         3.153522         0.023861        -0.788490
 O         2.385347        -1.160765        -0.211335
 H        -0.257522        -0.918410         1.230211
 H        -0.382925         0.514808        -0.311342
 H        -0.265747        -1.189575        -0.690181
 H         1.637290         1.748301         1.505614
 H         2.246282         0.252913         2.115899
 H         5.234807         1.666720         0.426568
 H         1.888025         2.921681        -0.005534
 H         3.056800         2.681320        -1.425763
 H         1.233621         0.626654        -1.935051
 H         3.966670        -0.348203        -1.428081
