19
Iteration:  2623charge 0 multiplicity 1
 C        -0.021396        -0.492782         0.252771
 C         1.368591        -0.001487         0.064018
 C         2.088289         0.616996         1.275115
 C         3.254378         1.258394         0.377581
 O         4.457779         1.440939         1.011508
 C         2.669994         2.189906        -0.651014
 C         1.915096         0.852122        -1.133281
 C         3.106660         0.078293        -0.716958
 O         2.338840        -1.056626        -0.236040
 H        -0.027422        -1.456036         0.860118
 H        -0.670193         0.054055         0.850610
 H        -0.379245        -0.883696        -0.727236
 H         1.471046         1.176915         1.949845
 H         2.446463        -0.208976         1.943669
 H         4.520864         0.730063         1.769769
 H         2.196655         3.194232        -0.377597
 H         3.321256         2.334578        -1.542549
 H         1.701306         0.718522        -2.231235
 H         4.048871        -0.061428        -1.336030
