19
Iteration:    43
 C        -0.108294        -0.261862        -0.043002
 C         1.267847         0.118870         0.123405
 C         1.991536         0.668728         1.306959
 C         3.255600         1.110274         0.423421
 O         4.590773         1.339748         0.988039
 C         2.661988         2.027446        -0.644920
 C         2.011240         0.755995        -1.140858
 C         3.217987        -0.036708        -0.588669
 O         2.303334        -1.011319        -0.078955
 H        -0.458483        -0.917888         0.682735
 H        -0.636232         0.598216        -0.330419
 H        -0.163730        -0.992358        -0.913254
 H         1.572913         1.599008         1.622744
 H         2.103268        -0.105823         2.034627
 H         4.602499         2.298038         1.205852
 H         2.028222         2.871073        -0.283903
 H         3.457670         2.433683        -1.297659
 H         1.517447         0.436152        -2.031831
 H         4.056033        -0.320400        -1.270392
