19
Iteration:  3546
 C        -0.036157        -0.591429         0.268772
 C         1.373193        -0.029432         0.068031
 C         2.087122         0.805455         1.233399
 C         3.332906         1.095156         0.373292
 O         4.488227         1.540592         1.023205
 C         2.620706         2.127204        -0.538504
 C         1.825013         0.918561        -1.141893
 C         3.183613        -0.019255        -0.803919
 O         2.356352        -1.118725        -0.266999
 H        -0.007731        -0.913514         1.361481
 H        -0.797638         0.219777         0.287284
 H        -0.284465        -1.229160        -0.566270
 H         1.532344         1.820972         1.403364
 H         2.112883         0.004435         2.191294
 H         4.464800         1.360042         2.050820
 H         2.128715         2.963361        -0.020932
 H         3.328222         2.379287        -1.366762
 H         1.425974         1.042094        -2.231397
 H         3.908201        -0.319383        -1.535874
