19
Iteration:  1035charge 0 multiplicity 1
 C        -0.104745        -0.388243         0.073722
 C         1.346381         0.040101         0.082642
 C         2.001871         0.758851         1.245400
 C         3.312705         1.117832         0.458209
 O         4.595899         1.387742         0.963373
 C         2.625092         2.072865        -0.622306
 C         1.898271         0.848197        -1.157390
 C         3.132136        -0.002783        -0.610305
 O         2.404650        -1.112658        -0.149717
 H        -0.275529        -1.068214         0.868234
 H        -0.821158         0.524253         0.203353
 H        -0.303285        -1.004144        -0.948111
 H         1.554027         1.650152         1.240994
 H         1.923252         0.337840         2.274681
 H         4.576914         1.485997         2.004703
 H         1.974563         2.937216        -0.352357
 H         3.151577         2.552083        -1.448603
 H         1.589756         0.740866        -2.170602
 H         4.046996        -0.173141        -1.139817
