19
Iteration:  1863
 C        -0.033867        -0.537457         0.121715
 C         1.337969         0.005450         0.019153
 C         2.169029         0.777276         1.293413
 C         3.280956         1.182978         0.398097
 O         4.527557         1.451915         1.017094
 C         2.565858         2.143525        -0.618438
 C         1.950895         0.852311        -1.189106
 C         3.141018        -0.037569        -0.677065
 O         2.292542        -1.066966        -0.175561
 H         0.016484        -1.520900         0.529984
 H        -0.645047         0.224625         0.637991
 H        -0.568673        -0.573123        -0.862119
 H         1.692253         1.769375         1.841071
 H         2.424297         0.177360         2.199127
 H         4.523816         1.076837         1.974601
 H         1.879805         2.724111         0.004785
 H         3.126797         2.725135        -1.343971
 H         1.465592         0.635681        -2.167682
 H         3.981137        -0.281502        -1.267622
