19
Iteration:  2622charge 0 multiplicity 1
 C        -0.021985        -0.496635         0.248422
 C         1.372473        -0.001023         0.062787
 C         2.084274         0.627859         1.276882
 C         3.263432         1.256856         0.391060
 O         4.457529         1.442461         1.012172
 C         2.668485         2.192152        -0.649086
 C         1.908653         0.857425        -1.139691
 C         3.105520         0.072882        -0.721859
 O         2.340246        -1.056500        -0.235029
 H        -0.040398        -1.470255         0.872928
 H        -0.702637         0.091331         0.847589
 H        -0.389205        -0.899902        -0.732089
 H         1.513254         1.164334         1.932704
 H         2.469834        -0.224417         1.943645
 H         4.550015         0.710985         1.771009
 H         2.157182         3.189799        -0.363789
 H         3.317308         2.307247        -1.551374
 H         1.691694         0.690564        -2.235816
 H         4.053256        -0.083842        -1.355420
