19
Iteration:  4100
 C        -0.095916        -0.464426         0.258969
 C         1.350159        -0.015304         0.105364
 C         2.143492         0.578427         1.225199
 C         3.268754         1.187420         0.416538
 O         4.477798         1.583749         0.960380
 C         2.618294         2.096246        -0.599781
 C         1.965783         0.907415        -1.144245
 C         3.123327         0.001444        -0.709769
 O         2.332872        -1.111889        -0.257016
 H        -0.559550        -0.302181         1.164037
 H        -0.714490         0.134899        -0.325096
 H        -0.187476        -1.518302        -0.022351
 H         1.693836         1.312124         1.865582
 H         2.754849        -0.317610         1.708348
 H         4.502200         1.543170         1.991042
 H         2.008423         2.979287        -0.549611
 H         3.492718         2.380868        -1.206963
 H         1.435838         0.726542        -2.052073
 H         4.072214        -0.225250        -1.270489
