19
Iteration:  3027charge 0 multiplicity 1
 C        -0.029362        -0.474542         0.216852
 C         1.350408        -0.032828         0.037845
 C         2.076515         0.695635         1.236341
 C         3.303180         1.098110         0.384005
 O         4.547019         1.522991         1.013286
 C         2.583833         2.121531        -0.517942
 C         1.874134         0.874718        -1.124881
 C         3.143033         0.032044        -0.765067
 O         2.388909        -1.124267        -0.299693
 H         0.015315        -1.227098         1.089590
 H        -0.526973         0.397979         0.692270
 H        -0.627913        -0.736762        -0.792764
 H         1.617214         1.536231         1.711456
 H         2.288134        -0.073779         2.114999
 H         4.360660         1.752807         1.863774
 H         1.980193         2.901267        -0.040523
 H         3.119488         2.715520        -1.252843
 H         1.124422         0.668355        -1.949753
 H         4.019511        -0.339464        -1.281827
