19
Iteration:  1121
 C        -0.055164        -0.361469         0.265974
 C         1.373044         0.007456         0.078533
 C         2.004919         0.808217         1.221734
 C         3.324749         1.102205         0.335678
 O         4.411446         1.575029         1.157341
 C         2.722274         2.082576        -0.560584
 C         1.993953         0.765750        -1.275415
 C         3.235440        -0.114758        -0.786185
 O         2.281497        -1.134557        -0.264882
 H        -0.265519        -1.004851         1.058297
 H        -0.648470         0.534514         0.414689
 H        -0.603171        -0.624585        -0.665374
 H         1.459160         1.789966         1.520521
 H         2.193049         0.084512         2.165853
 H         4.632573         0.879687         1.744589
 H         1.928962         2.711316        -0.075624
 H         3.490078         2.529815        -1.227487
 H         1.359697         0.690597        -2.105695
 H         4.135964        -0.364350        -1.281311
