19
Iteration:  2765
 C        -0.010596        -0.537525         0.189260
 C         1.370810         0.032945         0.102702
 C         2.075118         0.646553         1.283365
 C         3.264340         1.146759         0.382507
 O         4.465875         1.505588         1.028701
 C         2.608201         2.139073        -0.595660
 C         1.911829         0.899318        -1.131949
 C         3.150531         0.041351        -0.732541
 O         2.343666        -1.031530        -0.247665
 H        -0.293294        -0.652649         1.307051
 H        -0.703587         0.234448        -0.054224
 H        -0.040493        -1.567093        -0.315215
 H         1.585197         1.157597         1.941624
 H         2.342703        -0.274811         1.901169
 H         4.987788         0.576841         1.053305
 H         1.884867         2.972959        -0.376472
 H         3.422498         2.441298        -1.281976
 H         1.384103         1.096068        -2.075716
 H         3.990317        -0.226542        -1.379521
