19
Iteration:  2022charge 0 multiplicity 1
 C        -0.011520        -0.564099         0.094905
 C         1.324553         0.091191         0.053136
 C         2.145403         0.702732         1.293126
 C         3.236160         1.221925         0.426354
 O         4.482717         1.458930         0.961447
 C         2.656722         2.174847        -0.606227
 C         1.936601         0.867217        -1.198001
 C         3.103996        -0.013235        -0.680462
 O         2.327745        -1.103260        -0.117467
 H         0.019887        -1.526903         0.768048
 H        -0.628240         0.087688         0.674951
 H        -0.385860        -0.621364        -0.956726
 H         1.691606         1.516709         1.977400
 H         2.349647        -0.303271         1.740426
 H         4.523529         1.219760         1.899386
 H         1.927932         2.880806        -0.199159
 H         3.474302         2.512721        -1.289092
 H         1.278357         0.778314        -2.143516
 H         4.035950        -0.242953        -1.382220
