19
Iteration:  1000
 C        -0.020743        -0.329370         0.154742
 C         1.351020         0.040023         0.014018
 C         2.172163         0.622268         1.243673
 C         3.260116         1.159430         0.396407
 O         4.434524         1.426254         1.061283
 C         2.665397         2.123379        -0.669421
 C         1.966861         0.835959        -1.192551
 C         3.134820        -0.019406        -0.636695
 O         2.305138        -1.105180        -0.153662
 H        -0.348241        -0.611159         1.209285
 H        -0.649879         0.491164        -0.180076
 H        -0.301859        -1.152680        -0.554031
 H         1.555899         1.395576         1.686974
 H         2.497930        -0.106882         2.006212
 H         4.185897         1.849262         1.982677
 H         1.961696         2.941070        -0.328317
 H         3.417529         2.311981        -1.504891
 H         1.404824         0.712567        -2.162058
 H         4.046063        -0.404777        -1.210667
