19
Iteration:  3417charge 0 multiplicity 1
 C         0.010105        -0.613007         0.271007
 C         1.352045         0.013303         0.091421
 C         2.046208         0.682213         1.254738
 C         3.235302         1.202507         0.348160
 O         4.502963         1.314586         1.019996
 C         2.592721         2.221355        -0.634220
 C         1.914793         0.920149        -1.207720
 C         3.136689         0.088099        -0.716291
 O         2.390811        -1.059895        -0.200232
 H        -0.114534        -1.398137         1.019986
 H        -0.832724         0.206122         0.464017
 H        -0.291683        -1.193681        -0.607537
 H         1.657812         1.486768         1.734553
 H         2.312297        -0.068442         2.030343
 H         4.600262         2.166207         1.443052
 H         2.138973         3.078756        -0.127324
 H         3.402015         2.658647        -1.236679
 H         1.331101         0.619767        -2.184200
 H         4.001018        -0.057283        -1.351480
