19
Iteration:   530
 C        -0.065364        -0.326608         0.174282
 C         1.307151         0.005688         0.002392
 C         2.018580         0.784682         1.193915
 C         3.321840         1.188187         0.409700
 O         4.488707         1.414695         1.171714
 C         2.666293         2.057209        -0.587499
 C         1.994557         0.774320        -1.169034
 C         3.190309        -0.080617        -0.677517
 O         2.308218        -1.152334        -0.265777
 H        -0.265921        -1.291229         0.645860
 H        -0.472975         0.397733         0.851444
 H        -0.649534        -0.482244        -0.769765
 H         1.533656         1.638074         1.535385
 H         2.205994         0.172522         2.051161
 H         4.496389         2.441367         1.328703
 H         2.120263         2.879024        -0.138540
 H         3.338536         2.482288        -1.348169
 H         1.630078         0.819058        -2.255488
 H         4.071564        -0.347897        -1.358518
