19
Iteration:  2116
 C        -0.080830        -0.518852         0.183301
 C         1.359361        -0.048159         0.074852
 C         2.048361         0.692794         1.254047
 C         3.268298         1.203002         0.430516
 O         4.493403         1.557901         1.021883
 C         2.651045         2.106764        -0.628220
 C         1.958203         0.908356        -1.094089
 C         3.175345        -0.003980        -0.730472
 O         2.337656        -1.119666        -0.239909
 H        -0.306409        -0.989964         1.159044
 H        -0.757168         0.509828         0.052690
 H        -0.360586        -1.058470        -0.740875
 H         1.465021         1.499271         1.906389
 H         2.335189        -0.221813         2.058181
 H         4.851777         0.681753         1.285848
 H         2.051239         2.961547        -0.222873
 H         3.378812         2.440245        -1.405196
 H         1.350947         1.012993        -1.997315
 H         4.095895        -0.168458        -1.298398
