19
Iteration:  1032
 C        -0.122284        -0.393437         0.086097
 C         1.320142         0.037821         0.089118
 C         2.011032         0.741180         1.264592
 C         3.303407         1.109122         0.451070
 O         4.596656         1.391757         0.973445
 C         2.617618         2.085246        -0.624108
 C         1.935783         0.855546        -1.162614
 C         3.133855         0.005944        -0.610020
 O         2.427690        -1.119027        -0.156400
 H        -0.408388        -1.048359         0.960161
 H        -0.740924         0.482374         0.047401
 H        -0.342318        -0.874573        -0.877292
 H         1.434657         1.802504         1.269387
 H         1.959796         0.278895         2.291612
 H         4.529787         1.481527         1.882448
 H         1.895160         2.960851        -0.408768
 H         3.315916         2.481586        -1.495001
 H         1.489207         0.717952        -2.198828
 H         4.051343        -0.198143        -1.280383
