19
Iteration:   167charge 0 multiplicity 1
 C        -0.044204        -0.400511        -0.020280
 C         1.336399         0.019852         0.089469
 C         1.966048         0.791805         1.273697
 C         3.345615         1.114303         0.377305
 O         4.612740         1.380465         1.025707
 C         2.659751         2.125408        -0.599770
 C         2.012330         0.833088        -1.117318
 C         3.166691        -0.066086        -0.692732
 O         2.216349        -1.077585        -0.102833
 H        -0.185644        -1.177227         0.719917
 H        -0.686318         0.428995         0.291281
 H        -0.225797        -0.621252        -0.972122
 H         1.422067         1.726604         1.493229
 H         2.018604         0.181897         2.198709
 H         4.504763         1.747575         1.950211
 H         1.938212         2.800570        -0.161495
 H         3.272116         2.636451        -1.332815
 H         1.444143         0.717348        -2.106948
 H         3.884937        -0.554157        -1.379326
