19
Iteration:  1278charge 0 multiplicity 1
 C        -0.094385        -0.400122         0.203820
 C         1.327725         0.102175         0.056371
 C         2.108290         0.726269         1.194151
 C         3.318735         1.139893         0.355212
 O         4.436594         1.555321         1.148120
 C         2.698344         2.049879        -0.636156
 C         1.964178         0.860946        -1.177127
 C         3.150185        -0.122925        -0.701317
 O         2.290718        -1.102240        -0.253985
 H         0.005585        -1.286174         0.745903
 H        -0.678116         0.346586         0.786303
 H        -0.578274        -0.732280        -0.716728
 H         1.660838         1.616471         1.611450
 H         2.458952        -0.107354         2.008618
 H         4.608712         0.877338         1.830790
 H         2.024836         2.684472        -0.045270
 H         3.372746         2.581667        -1.320056
 H         1.667138         0.687352        -2.280674
 H         4.097479        -0.429733        -1.279817
