19
Iteration:  2852
 C        -0.155159        -0.446986         0.225571
 C         1.349730        -0.062276         0.078436
 C         2.147590         0.580092         1.339870
 C         3.232900         1.261800         0.427056
 O         4.476881         1.484980         0.950071
 C         2.620120         2.172302        -0.591472
 C         1.913244         0.806080        -1.153415
 C         3.185902         0.038765        -0.765204
 O         2.416315        -1.025770        -0.273075
 H        -0.202820        -1.473021         0.650395
 H        -0.565894         0.190572         0.961816
 H        -0.666440        -0.590383        -0.761822
 H         1.450191         1.256660         1.786774
 H         2.618554        -0.296872         2.049309
 H         4.502210         1.339003         1.981520
 H         2.091715         3.055428        -0.309849
 H         3.454077         2.254982        -1.256148
 H         1.438553         0.768022        -2.129638
 H         4.016542        -0.287797        -1.353436
