19
Iteration:   805
 C        -0.131616        -0.304791         0.205425
 C         1.385701         0.018673         0.054015
 C         2.023475         0.689470         1.169599
 C         3.302534         1.164717         0.412510
 O         4.452228         1.414620         1.056716
 C         2.654873         2.110736        -0.608028
 C         1.949143         0.817172        -1.158487
 C         3.250481        -0.042372        -0.712407
 O         2.382620        -1.163934        -0.203694
 H        -0.610374        -0.536206         1.098738
 H        -0.696490         0.593303        -0.051658
 H        -0.340929        -1.206007        -0.453432
 H         1.400339         1.629650         1.587655
 H         2.214784         0.051833         2.135978
 H         4.274457         1.955222         1.940064
 H         2.195241         3.030174        -0.255758
 H         3.388307         2.517214        -1.286945
 H         1.461179         0.735749        -2.178790
 H         4.105003        -0.481587        -1.349138
