19
Iteration:  1945
 C        -0.067191        -0.446382         0.228517
 C         1.334712         0.020444        -0.003400
 C         2.126000         0.661543         1.253827
 C         3.266573         1.149551         0.388263
 O         4.447447         1.574595         1.129047
 C         2.583868         2.057808        -0.596374
 C         2.001270         0.841239        -1.194725
 C         3.163188        -0.000082        -0.772775
 O         2.296208        -1.065213        -0.231475
 H        -0.208557        -0.579328         1.399572
 H        -0.805115         0.339169        -0.038783
 H        -0.155705        -1.446829        -0.276299
 H         1.769568         1.431275         2.000823
 H         2.571014        -0.237766         1.692062
 H         5.022776         0.723748         1.374936
 H         1.908324         2.870061        -0.208405
 H         3.323427         2.607349        -1.298487
 H         1.527333         0.794992        -2.217606
 H         4.197819        -0.300120        -1.241684
