19
Iteration:  4458
 C        -0.090232        -0.435882         0.208642
 C         1.350887         0.016176         0.082061
 C         2.163866         0.601192         1.278567
 C         3.292163         1.136140         0.420061
 O         4.543923         1.466953         0.945740
 C         2.509884         2.144767        -0.599541
 C         1.889791         0.859087        -1.100446
 C         3.151213         0.082952        -0.784952
 O         2.368165        -1.090661        -0.228525
 H        -0.754951         0.358262         0.023806
 H        -0.208403        -1.273655        -0.452991
 H        -0.111408        -0.881744         1.248040
 H         1.486518         1.269647         1.861052
 H         2.495461        -0.244510         1.969344
 H         4.488967         1.405146         1.867416
 H         1.935237         2.971002        -0.163529
 H         3.202030         2.548604        -1.361060
 H         1.537241         0.911012        -2.025938
 H         4.084948        -0.182276        -1.312969
