19
Iteration:   397
 C        -0.118276        -0.371211         0.270566
 C         1.372880         0.104312        -0.005645
 C         2.102023         0.753236         1.223873
 C         3.294781         1.170833         0.437645
 O         4.441558         1.461082         1.176199
 C         2.648397         2.032205        -0.628237
 C         2.050170         0.860212        -1.224787
 C         3.183959        -0.079418        -0.731473
 O         2.291033        -1.139123        -0.328441
 H        -0.178992        -0.710976         1.388135
 H        -0.949510         0.359648        -0.042290
 H        -0.382238        -1.171251        -0.370931
 H         1.717932         1.570425         1.690734
 H         2.323125        -0.028273         1.959231
 H         4.250640         1.336877         2.179051
 H         1.971639         2.850389        -0.329606
 H         3.360170         2.506766        -1.320135
 H         1.597813         0.677230        -2.323185
 H         4.120276        -0.430215        -1.314232
