19
Iteration:  1712
 C        -0.027776        -0.454645         0.103171
 C         1.335934         0.029704         0.098521
 C         2.115640         0.733408         1.256738
 C         3.318401         1.095812         0.357214
 O         4.484885         1.515270         1.055592
 C         2.615550         2.129247        -0.559360
 C         1.902249         0.860632        -1.127929
 C         3.193941        -0.044714        -0.799071
 O         2.298128        -1.107107        -0.193450
 H        -0.249825        -0.987923         1.041863
 H        -0.879912         0.300022         0.283220
 H        -0.123159        -1.211791        -0.742563
 H         1.579370         1.715214         1.638355
 H         2.354651        -0.039748         1.979889
 H         4.576672         1.214256         2.055325
 H         2.098275         2.943956         0.062509
 H         3.242504         2.629017        -1.367088
 H         1.496173         0.983474        -2.078225
 H         3.888969        -0.515609        -1.434007
