19
Iteration:  1164charge 0 multiplicity 1
 C        -0.117299        -0.386992         0.050456
 C         1.360705        -0.021925         0.136515
 C         2.024822         0.684294         1.292730
 C         3.246806         1.219990         0.497943
 O         4.538742         1.518000         0.948926
 C         2.681998         2.127749        -0.647903
 C         1.966482         0.792094        -1.119422
 C         3.134809        -0.027083        -0.662396
 O         2.334978        -1.100350        -0.191328
 H        -0.661726        -0.704289         0.995049
 H        -0.482823         0.555215        -0.348367
 H        -0.308004        -1.063065        -0.817778
 H         1.514519         1.547935         1.888469
 H         2.315364        -0.191795         2.034554
 H         4.747789         0.746417         1.385477
 H         2.114533         2.937975        -0.132355
 H         3.530630         2.311432        -1.337229
 H         1.580068         0.623803        -2.072912
 H         4.047890        -0.344323        -1.101500
