19
Iteration:  2853
 C        -0.159486        -0.445110         0.222450
 C         1.359451        -0.060950         0.077108
 C         2.137879         0.583269         1.338186
 C         3.242965         1.261706         0.426148
 O         4.480593         1.489401         0.948133
 C         2.617026         2.167047        -0.588986
 C         1.908719         0.809221        -1.151651
 C         3.177383         0.046645        -0.766021
 O         2.416908        -1.036821        -0.275222
 H        -0.224599        -1.479751         0.647453
 H        -0.539875         0.196543         1.028108
 H        -0.652512        -0.614159        -0.798600
 H         1.472523         1.229539         1.789868
 H         2.600282        -0.272123         2.060935
 H         4.502715         1.336350         2.002443
 H         2.088385         3.076271        -0.312735
 H         3.491587         2.231623        -1.239235
 H         1.452132         0.750573        -2.125220
 H         4.001571        -0.276643        -1.326276
