19
Iteration:  2326
 C        -0.043168        -0.484941         0.230593
 C         1.347278        -0.024868         0.019783
 C         2.134616         0.633125         1.321485
 C         3.258481         1.198913         0.367546
 O         4.437228         1.499215         1.008904
 C         2.669298         2.174920        -0.673093
 C         1.904518         0.936241        -1.140388
 C         3.120470         0.014902        -0.670661
 O         2.359070        -1.068435        -0.209385
 H        -0.115671        -0.943207         1.267884
 H        -0.829102         0.173744        -0.134404
 H        -0.217427        -1.341911        -0.478607
 H         1.396996         1.065365         1.916227
 H         2.607457        -0.252383         1.850179
 H         4.676128         0.638548         1.490071
 H         2.047079         3.028017        -0.428613
 H         3.476033         2.584971        -1.289411
 H         1.437742         0.824934        -2.105030
 H         4.037722        -0.284115        -1.156181
