19
Iteration:  4587charge 0 multiplicity 1
 C        -0.097104        -0.335153         0.195416
 C         1.367475        -0.059247         0.087481
 C         2.154832         0.662658         1.323637
 C         3.283485         1.164328         0.363711
 O         4.497732         1.471312         0.941277
 C         2.454280         2.201780        -0.554177
 C         1.951132         0.829414        -1.125099
 C         3.145912        -0.077513        -0.780525
 O         2.468103        -1.105093        -0.249737
 H        -0.513325         0.419607         0.763808
 H        -0.444158        -0.405832        -0.804140
 H        -0.349847        -1.269387         0.836381
 H         1.614934         1.447141         1.929243
 H         2.654874        -0.023402         1.975067
 H         4.499133         1.172370         1.930160
 H         1.749871         2.841363        -0.015811
 H         2.792387         2.749583        -1.402979
 H         1.309339         0.727397        -1.918472
 H         4.079370        -0.400970        -1.304667
