19
Iteration:  4855charge 0 multiplicity 1
 C         0.011272        -0.651406         0.236213
 C         1.325334         0.079038         0.126067
 C         2.089324         0.767393         1.254921
 C         3.265187         1.149961         0.372497
 O         4.503663         1.496290         0.949815
 C         2.741714         2.230934        -0.525041
 C         1.802731         0.861517        -1.067577
 C         3.106731         0.012147        -0.752646
 O         2.341452        -1.092870        -0.259488
 H        -0.703327         0.207106         0.391811
 H        -0.378109        -1.172111        -0.680776
 H         0.010351        -1.407460         0.955107
 H         1.547667         1.595573         1.611751
 H         2.344310        -0.027210         1.899160
 H         4.984853         0.578996         1.216107
 H         2.173922         3.105370        -0.232643
 H         3.389785         2.559545        -1.343738
 H         1.151114         0.706611        -1.910152
 H         3.807773        -0.233563        -1.495415
