19
Iteration:  3414charge 0 multiplicity 1
 C         0.014159        -0.588104         0.282611
 C         1.333195        -0.000820         0.099004
 C         2.031982         0.687804         1.235644
 C         3.240538         1.206613         0.322271
 O         4.519720         1.307256         1.025705
 C         2.593741         2.215631        -0.595053
 C         1.908592         0.889676        -1.204728
 C         3.148538         0.086811        -0.728395
 O         2.392694        -1.047792        -0.209442
 H        -0.061099        -1.376497         1.052185
 H        -0.754566         0.114735         0.319932
 H        -0.308462        -1.187834        -0.558787
 H         1.506249         1.602997         1.746678
 H         2.307897        -0.100556         2.084015
 H         4.520572         2.255010         1.470924
 H         2.139980         3.061092        -0.096207
 H         3.356306         2.621644        -1.286591
 H         1.377244         0.666645        -2.142250
 H         4.028544        -0.031612        -1.400309
