19
Iteration:  2604charge 0 multiplicity 1
 C        -0.059500        -0.546568         0.191081
 C         1.338687         0.008984         0.085530
 C         2.122149         0.703196         1.271781
 C         3.266759         1.126262         0.375261
 O         4.535988         1.524255         1.081178
 C         2.579887         2.112184        -0.615317
 C         1.912765         0.877592        -1.144511
 C         3.126650         0.000661        -0.790291
 O         2.364744        -1.052319        -0.246261
 H        -0.187243        -1.207931         1.025310
 H        -0.686955         0.317520         0.470352
 H        -0.350196        -1.035022        -0.740676
 H         1.595864         1.690954         1.750535
 H         2.259001         0.031600         2.096763
 H         4.936143         0.621651         1.455649
 H         2.010039         2.927735        -0.216584
 H         3.328513         2.699592        -1.123890
 H         1.214692         1.023911        -1.981839
 H         3.979805        -0.251488        -1.391488
