19
Iteration:  3119charge 0 multiplicity 1
 C        -0.014037        -0.589570         0.164962
 C         1.375212         0.043226         0.114458
 C         2.112875         0.671385         1.243029
 C         3.292233         1.189856         0.377088
 O         4.514115         1.377922         0.978872
 C         2.537108         2.159521        -0.553140
 C         1.931822         0.936494        -1.103426
 C         3.138552        -0.002306        -0.696978
 O         2.318678        -1.038571        -0.266114
 H        -0.023672        -1.306599         0.955522
 H        -0.910894        -0.059023         0.491513
 H        -0.236784        -1.109003        -0.723181
 H         1.687630         1.480668         1.860684
 H         2.525653        -0.059038         2.130221
 H         4.564968         2.334351         1.391029
 H         1.923430         3.007813        -0.287507
 H         3.172870         2.544695        -1.344894
 H         1.399264         0.919355        -2.007445
 H         4.046458        -0.335058        -1.237758
