19
Iteration:  1398charge 0 multiplicity 1
 C        -0.119106        -0.422243         0.284102
 C         1.366990        -0.045811         0.042778
 C         2.020944         0.772330         1.225234
 C         3.293111         1.064330         0.456887
 O         4.472003         1.588074         1.120933
 C         2.728260         2.085686        -0.615613
 C         1.979821         0.884700        -1.166567
 C         3.184096        -0.000790        -0.849129
 O         2.310113        -1.175817        -0.279061
 H        -0.064782        -1.076387         1.164225
 H        -0.738731         0.583500         0.301284
 H        -0.656821        -1.083856        -0.520707
 H         1.487987         1.653146         1.429995
 H         2.155995         0.087652         2.158046
 H         4.656728         0.875504         1.759975
 H         2.129437         2.942722        -0.166004
 H         3.532679         2.403665        -1.332608
 H         1.404097         0.990232        -2.136172
 H         4.089257        -0.276345        -1.473830
