19
Iteration:  2372charge 0 multiplicity 1
 C        -0.037598        -0.436065         0.251099
 C         1.387343        -0.053597         0.099279
 C         2.086665         0.639664         1.196018
 C         3.328315         1.150064         0.410867
 O         4.489444         1.602831         1.058982
 C         2.578024         2.174889        -0.529193
 C         1.973811         0.874771        -1.133783
 C         3.114234        -0.082404        -0.785037
 O         2.327070        -1.155027        -0.334791
 H        -0.230190        -0.703820         1.367786
 H        -0.629679         0.305070        -0.191371
 H        -0.366553        -1.356213        -0.351090
 H         1.578726         1.579461         1.478364
 H         2.229782         0.100882         2.118696
 H         4.668295         1.061163         1.963290
 H         1.999712         2.994528        -0.132854
 H         3.116089         2.751031        -1.253871
 H         1.354350         0.928848        -2.048317
 H         4.007223        -0.280760        -1.466116
