19
Iteration:  1893charge 0 multiplicity 1
 C        -0.078453        -0.458799         0.151350
 C         1.332021         0.015400         0.066556
 C         2.068810         0.628720         1.312711
 C         3.212149         1.103957         0.437201
 O         4.500714         1.494442         0.959010
 C         2.654287         2.137702        -0.662506
 C         1.895199         0.869089        -1.116082
 C         3.108192         0.045633        -0.684651
 O         2.450364        -1.084136        -0.193639
 H        -0.337094        -1.254793         0.823580
 H        -0.585148         0.447555         0.265857
 H        -0.312337        -0.833194        -0.848734
 H         1.661039         1.519242         1.706483
 H         2.351298        -0.107482         2.197570
 H         4.638908         1.280469         1.921610
 H         2.213237         3.081526        -0.365313
 H         3.427859         2.456638        -1.348494
 H         1.349867         0.598866        -2.106608
 H         4.027178        -0.099742        -1.359438
