19
Iteration:  3883
 C         0.009779        -0.619483         0.164959
 C         1.336413        -0.000246         0.172395
 C         2.028547         0.752221         1.340928
 C         3.199574         1.207019         0.428927
 O         4.513090         1.331586         0.913436
 C         2.606688         2.165315        -0.655190
 C         1.939706         0.878201        -1.133227
 C         3.139128         0.071498        -0.702859
 O         2.356608        -1.014158        -0.174939
 H         0.091527        -1.672208         0.535657
 H        -0.790840        -0.196668         0.749868
 H        -0.510106        -0.798965        -0.861912
 H         1.451994         1.649998         1.939953
 H         2.552643         0.010416         1.901190
 H         4.877318         2.254062         0.957961
 H         2.187429         3.123592        -0.336627
 H         3.397684         2.276035        -1.447079
 H         1.624881         0.863970        -2.203814
 H         4.038177        -0.291280        -1.248985
