19
Iteration:  4404charge 0 multiplicity 1
 C        -0.076196        -0.475369         0.209741
 C         1.312428        -0.006677         0.080748
 C         2.101062         0.649231         1.282656
 C         3.281523         1.157504         0.422526
 O         4.560450         1.443524         0.978148
 C         2.582896         2.163078        -0.636122
 C         1.860900         0.800129        -1.118979
 C         3.155741         0.054591        -0.752663
 O         2.392865        -1.087820        -0.247794
 H        -0.576390         0.045869         1.029791
 H        -0.590301        -0.164659        -0.688277
 H        -0.175402        -1.591281         0.503930
 H         1.615886         1.491129         1.760813
 H         2.414746        -0.170803         1.982994
 H         4.474003         2.055912         1.717633
 H         2.171502         2.996364        -0.059251
 H         3.372424         2.670438        -1.203757
 H         1.371062         0.829408        -1.970627
 H         4.010195        -0.215926        -1.432222
