19
Iteration:  3160
 C        -0.119368        -0.408691         0.200065
 C         1.369215        -0.102936         0.071004
 C         2.130277         0.632726         1.229345
 C         3.258165         1.156076         0.409845
 O         4.500770         1.450119         0.953282
 C         2.538314         2.139091        -0.533409
 C         1.912103         0.841679        -1.009306
 C         3.178561         0.060508        -0.767754
 O         2.467802        -1.098558        -0.306572
 H        -0.425535        -0.713755         1.322547
 H        -0.523443         0.597533         0.156148
 H        -0.440871        -1.422093        -0.373873
 H         1.485099         1.385609         1.476031
 H         2.250732        -0.005238         2.091745
 H         4.444350         2.179777         1.471480
 H         1.837146         2.850524        -0.047240
 H         3.272219         2.705256        -1.124636
 H         1.329756         0.843365        -1.903666
 H         4.033215        -0.122368        -1.433011
