19
Iteration:  3307
 C        -0.042787        -0.445993         0.204408
 C         1.424498        -0.089619         0.083973
 C         2.082765         0.699551         1.284610
 C         3.270718         1.126673         0.392208
 O         4.470818         1.595323         0.984318
 C         2.554712         2.137695        -0.534076
 C         1.887942         0.910230        -1.113463
 C         3.147547        -0.000727        -0.761533
 O         2.374757        -1.159595        -0.278671
 H        -0.136741        -1.203582         1.022048
 H        -0.697188         0.476886         0.577543
 H        -0.269514        -0.859078        -0.799322
 H         1.571173         1.532980         1.576400
 H         2.276960         0.079829         2.194160
 H         5.046174         0.797545         1.350112
 H         2.031238         2.948653        -0.011189
 H         3.218423         2.508628        -1.351521
 H         1.353396         0.697473        -2.132410
 H         4.128465        -0.247406        -1.205526
