19
Iteration:  1100charge 0 multiplicity 1
 C        -0.033937        -0.430813         0.237929
 C         1.325473        -0.009187         0.029640
 C         2.069945         0.741364         1.175227
 C         3.297798         1.219105         0.446077
 O         4.443116         1.510740         1.131453
 C         2.760757         2.092673        -0.703186
 C         1.979474         0.865371        -1.090253
 C         3.106615        -0.093779        -0.746134
 O         2.306507        -1.133800        -0.250293
 H        -0.094238        -1.195351         0.891625
 H        -0.600268         0.426459         0.661749
 H        -0.651614        -0.565627        -0.730236
 H         1.487532         1.654760         1.338015
 H         2.006008         0.054484         2.127374
 H         4.437939         1.168416         2.038846
 H         2.145043         3.026476        -0.485982
 H         3.536191         2.191638        -1.501280
 H         1.724736         0.760568        -2.093141
 H         3.900556        -0.415868        -1.348100
