19
Iteration:  2619charge 0 multiplicity 1
 C        -0.027830        -0.521342         0.236270
 C         1.379779        -0.000006         0.063908
 C         2.084120         0.653103         1.274191
 C         3.283874         1.239466         0.435137
 O         4.463861         1.444614         1.023902
 C         2.657446         2.199490        -0.645648
 C         1.890276         0.878804        -1.163212
 C         3.113624         0.055104        -0.740083
 O         2.347093        -1.056924        -0.234203
 H        -0.047250        -1.447764         0.877733
 H        -0.791507         0.229652         0.788589
 H        -0.437206        -0.905521        -0.715941
 H         1.540588         1.276632         1.975660
 H         2.526400        -0.218594         1.880900
 H         4.624504         0.761231         1.657887
 H         2.069590         3.092952        -0.342965
 H         3.315614         2.258990        -1.532210
 H         1.610843         0.622962        -2.189029
 H         3.994340        -0.163787        -1.375770
