19
Iteration:  2999
 C        -0.085057        -0.490186         0.209770
 C         1.374424        -0.046491         0.134830
 C         2.103423         0.578729         1.320478
 C         3.264526         1.162909         0.439936
 O         4.501279         1.521491         0.961125
 C         2.608105         2.167739        -0.602664
 C         1.940456         0.909166        -1.105929
 C         3.173272         0.050140        -0.800471
 O         2.358155        -1.092680        -0.319277
 H        -0.517571        -0.910062         1.104880
 H        -0.729502         0.449290         0.177669
 H        -0.219866        -1.254487        -0.516932
 H         1.561185         1.314664         1.953184
 H         2.447490        -0.212483         2.076406
 H         4.518031         1.508987         1.887650
 H         1.945373         3.033058        -0.345154
 H         3.388200         2.497268        -1.340023
 H         1.192869         0.819471        -1.881452
 H         4.075652        -0.334806        -1.357741
