19
Iteration:   238
 C        -0.106622        -0.369390         0.185020
 C         1.397830         0.047955         0.026095
 C         2.042881         0.804801         1.163025
 C         3.319014         1.103197         0.406039
 O         4.393129         1.401365         1.158187
 C         2.716156         2.096696        -0.525645
 C         2.047980         0.787201        -1.181543
 C         3.151225        -0.076880        -0.708886
 O         2.281565        -1.149941        -0.255257
 H        -0.215248        -0.416075         1.271937
 H        -0.788184         0.507990        -0.050796
 H        -0.552669        -1.254987        -0.522328
 H         1.490136         1.740526         1.513372
 H         2.255800         0.138304         2.016278
 H         4.856122         2.253265         0.903782
 H         2.099622         2.879628        -0.007301
 H         3.431578         2.601359        -1.221250
 H         1.766282         0.743220        -2.170996
 H         3.994987        -0.200343        -1.355787
