19
Iteration:  4323
 C        -0.034953        -0.531465         0.193197
 C         1.336612         0.008458         0.080284
 C         2.130707         0.696883         1.312038
 C         3.250789         1.168925         0.382922
 O         4.525891         1.462527         0.936423
 C         2.675375         2.189410        -0.613994
 C         1.922072         0.817186        -1.116490
 C         3.102674         0.043648        -0.688800
 O         2.316602        -1.069925        -0.242453
 H        -0.285896        -0.809777         1.253807
 H        -0.964495        -0.123374        -0.259137
 H        -0.004135        -1.503351        -0.270858
 H         1.584869         1.565956         1.907274
 H         2.516443        -0.014728         2.054529
 H         4.185838         1.670358         1.833697
 H         2.197174         3.149089        -0.288139
 H         3.469110         2.238355        -1.387282
 H         1.202126         0.833044        -2.016805
 H         3.980583        -0.247278        -1.338389
