19
Iteration:  1172
 C        -0.107509        -0.382833        -0.008108
 C         1.352873        -0.045982         0.147243
 C         2.065479         0.752084         1.328865
 C         3.256201         1.131734         0.464524
 O         4.510152         1.504837         0.925885
 C         2.663489         2.060445        -0.579406
 C         1.989471         0.821587        -1.078832
 C         3.131273        -0.036172        -0.628598
 O         2.345284        -1.055434        -0.212864
 H        -0.735750        -0.738449         0.973669
 H        -0.696137         0.469067        -0.361689
 H        -0.243756        -1.135950        -0.762522
 H         1.459213         1.646556         1.666227
 H         2.323846         0.160572         2.119884
 H         4.924425         0.854477         1.465167
 H         2.133511         2.970289        -0.276590
 H         3.409267         2.375292        -1.343950
 H         1.508131         0.607847        -2.088529
 H         3.974705        -0.254585        -1.355639
