19
Iteration:  2156charge 0 multiplicity 1
 C        -0.079097        -0.533695         0.082725
 C         1.374019         0.042874         0.088743
 C         2.103210         0.722087         1.338318
 C         3.271725         1.153534         0.407261
 O         4.509673         1.451773         0.923215
 C         2.578359         2.129873        -0.569448
 C         1.879360         0.903851        -1.108748
 C         3.195501        -0.018205        -0.696771
 O         2.378843        -1.042886        -0.177489
 H        -0.534118        -0.794698         1.031899
 H        -0.801631         0.174383        -0.213031
 H        -0.048785        -1.388021        -0.614994
 H         1.611378         1.526025         1.683378
 H         2.456149        -0.069151         1.946920
 H         4.662356         0.919864         1.737506
 H         1.820552         2.829883        -0.170781
 H         3.292117         2.631985        -1.220098
 H         1.403408         0.911421        -2.071435
 H         4.006977        -0.328570        -1.357869
