19
Iteration:  2458charge 0 multiplicity 1
 C        -0.086817        -0.521054         0.203452
 C         1.329063         0.006389         0.085859
 C         2.050352         0.707274         1.331384
 C         3.279863         1.165012         0.418446
 O         4.479668         1.513011         1.009940
 C         2.651804         2.146695        -0.642782
 C         1.939306         0.904307        -1.195920
 C         3.145452        -0.014428        -0.729419
 O         2.358768        -1.069110        -0.221888
 H         0.095929        -1.582581         0.589697
 H        -0.645972        -0.173103         0.967118
 H        -0.479513        -0.756383        -0.781953
 H         1.449567         1.519290         1.754222
 H         2.438670        -0.087310         2.135215
 H         4.979506         0.780359         1.273956
 H         2.086592         2.959992        -0.105327
 H         3.400554         2.556136        -1.361174
 H         1.442152         0.867032        -2.180901
 H         4.063332        -0.153116        -1.364475
