19
Iteration:   485
 C        -0.138557        -0.444961        -0.056591
 C         1.297782         0.111614         0.057449
 C         2.105300         0.734964         1.341539
 C         3.242503         1.166675         0.449025
 O         4.528545         1.324263         0.947419
 C         2.670730         2.102060        -0.596844
 C         1.981835         0.848224        -1.168202
 C         3.168271        -0.014931        -0.636703
 O         2.330895        -1.039047        -0.067416
 H        -0.128779        -1.456243         0.481197
 H        -0.891476         0.243287         0.364512
 H        -0.337188        -0.708809        -1.089997
 H         1.687212         1.493952         1.880324
 H         2.338171        -0.113492         1.984613
 H         4.530758         2.053016         1.695122
 H         2.083696         2.978193        -0.332527
 H         3.437055         2.538765        -1.231166
 H         1.420329         0.496063        -2.153280
 H         4.133116        -0.379782        -1.162637
