19
Iteration:  1706charge 0 multiplicity 1
 C        -0.077599        -0.457355         0.152504
 C         1.352447        -0.020571         0.080434
 C         2.117174         0.768989         1.256434
 C         3.355589         1.093660         0.344849
 O         4.472999         1.526630         1.079395
 C         2.624567         2.077206        -0.538061
 C         1.913070         0.901234        -1.153184
 C         3.190841        -0.023157        -0.819937
 O         2.292944        -1.112612        -0.197234
 H        -0.160638        -1.197164         0.988778
 H        -0.788297         0.307102         0.231988
 H        -0.229558        -1.061889        -0.701608
 H         1.673324         1.677875         1.439255
 H         2.171354         0.142854         2.262127
 H         4.564907         1.127706         1.987158
 H         2.133244         2.848221        -0.015635
 H         3.129824         2.572396        -1.329955
 H         1.453985         1.072402        -2.202084
 H         4.042578        -0.439136        -1.464094
