19
Iteration:  3239
 C        -0.014555        -0.562931         0.216004
 C         1.373379        -0.030110         0.094553
 C         2.033751         0.806905         1.256297
 C         3.295281         1.122639         0.444418
 O         4.520627         1.510146         0.996794
 C         2.600099         2.144036        -0.563541
 C         1.876450         0.840276        -1.092204
 C         3.148054         0.004499        -0.849267
 O         2.375039        -1.062684        -0.257753
 H         0.121339        -1.514349         0.871230
 H        -0.775088        -0.063767         0.888973
 H        -0.511203        -0.743280        -0.817906
 H         1.439841         1.577887         1.414286
 H         2.049552         0.348486         2.277340
 H         4.878963         0.939078         1.679175
 H         2.146739         3.025256        -0.103694
 H         3.275995         2.403224        -1.370760
 H         1.303210         0.977995        -1.981996
 H         3.952068        -0.255953        -1.572212
