19
Iteration:   483
 C        -0.128198        -0.451607        -0.063714
 C         1.304371         0.109806         0.044927
 C         2.129327         0.736355         1.326495
 C         3.241724         1.165777         0.460036
 O         4.542186         1.320719         0.951741
 C         2.660344         2.105763        -0.596390
 C         1.973428         0.859563        -1.172117
 C         3.168846        -0.018361        -0.632853
 O         2.318322        -1.039273        -0.061291
 H        -0.182477        -1.464617         0.483475
 H        -0.905253         0.245661         0.364231
 H        -0.304347        -0.735759        -1.040086
 H         1.585083         1.546207         1.888725
 H         2.363698        -0.107188         2.015019
 H         4.447033         2.025451         1.684593
 H         2.060028         2.985084        -0.339432
 H         3.441468         2.496212        -1.265660
 H         1.385856         0.529812        -2.110567
 H         4.102972        -0.359564        -1.132466
