19
Iteration:  4957
 C        -0.041866        -0.538871         0.233224
 C         1.333538        -0.070676         0.065254
 C         2.192023         0.626178         1.220536
 C         3.279489         1.076416         0.356782
 O         4.557540         1.552454         1.059461
 C         2.573402         2.214277        -0.566069
 C         1.878139         0.903846        -1.025284
 C         3.136663         0.003771        -0.732220
 O         2.253430        -1.075110        -0.296006
 H        -0.609929         0.285958         0.641047
 H        -0.442371        -0.892622        -0.699675
 H        -0.072371        -1.334083         1.046963
 H         1.904906         1.519138         1.844020
 H         2.400952        -0.210572         1.864082
 H         4.811126         2.243363         0.500690
 H         2.021024         3.015510        -0.031359
 H         3.308584         2.492755        -1.280369
 H         1.453293         0.738983        -2.067583
 H         3.986734        -0.322970        -1.468620
