19
Iteration:   339
 C        -0.136345        -0.380846        -0.034373
 C         1.375288         0.057103         0.105927
 C         2.025197         0.672153         1.345270
 C         3.272604         1.137976         0.422350
 O         4.530921         1.447115         1.005955
 C         2.608687         2.104165        -0.638313
 C         2.035033         0.775899        -1.158058
 C         3.193358         0.032976        -0.615416
 O         2.265202        -1.005915        -0.128415
 H        -0.271775        -1.396215         0.375021
 H        -0.857992         0.309817         0.484710
 H        -0.245536        -0.611655        -1.148752
 H         1.651034         1.577352         1.758692
 H         2.403048        -0.010061         2.047101
 H         5.081790         0.703547         1.023689
 H         1.897233         2.862112        -0.295558
 H         3.473754         2.399517        -1.244509
 H         1.545875         0.462819        -2.045563
 H         4.052888        -0.386377        -0.928948
