19
Iteration:  1875
 C        -0.083306        -0.475490         0.094600
 C         1.378890         0.034645         0.092756
 C         2.096677         0.677291         1.300180
 C         3.288805         1.227965         0.383971
 O         4.549000         1.440629         0.993829
 C         2.554356         2.121497        -0.649925
 C         1.954183         0.819478        -1.130969
 C         3.184427         0.026944        -0.713642
 O         2.324713        -1.048680        -0.138253
 H        -0.069815        -1.398380         0.697758
 H        -0.862051         0.094227         0.709024
 H        -0.364875        -0.758084        -0.945630
 H         1.334363         1.433270         1.897068
 H         2.512433        -0.156220         1.812375
 H         4.383340         1.088111         1.930386
 H         1.903633         2.971558        -0.350349
 H         3.242007         2.522789        -1.442164
 H         1.459140         0.863818        -2.065427
 H         3.958015        -0.360541        -1.267763
