19
Iteration:  4696charge 0 multiplicity 1
 C        -0.040173        -0.518944         0.246756
 C         1.380492        -0.057121         0.100229
 C         2.072714         0.759412         1.343451
 C         3.222948         1.197256         0.341312
 O         4.526198         1.209457         0.905428
 C         2.506184         2.201441        -0.619847
 C         1.924712         0.876498        -1.134067
 C         3.140075         0.100833        -0.742551
 O         2.447417        -1.013961        -0.210575
 H        -0.577118         0.377270         0.037795
 H        -0.321043        -1.269562        -0.474161
 H        -0.266397        -0.970115         1.318033
 H         1.501199         1.618636         1.679303
 H         2.342203         0.181209         2.204248
 H         4.618721         1.694969         1.816676
 H         1.990922         2.961432        -0.012410
 H         3.226818         2.559498        -1.333826
 H         1.456410         0.751829        -2.077942
 H         3.929648        -0.000135        -1.517700
