19
Iteration:  1186
 C        -0.101287        -0.411829        -0.031824
 C         1.351369         0.065177         0.087011
 C         2.056991         0.790022         1.314980
 C         3.359092         1.038050         0.413872
 O         4.523118         1.528434         0.952456
 C         2.632644         2.094931        -0.542608
 C         1.897673         0.850584        -1.079271
 C         3.195911        -0.012778        -0.741997
 O         2.292620        -1.174448        -0.119022
 H        -0.322717        -0.867130         0.990611
 H        -0.766238         0.388069        -0.359464
 H        -0.084161        -1.239798        -0.815358
 H         1.597774         1.843527         1.424966
 H         2.102729         0.295680         2.389127
 H         4.841510         0.790612         1.638527
 H         1.965433         2.850704        -0.012721
 H         3.427725         2.400702        -1.250334
 H         1.360932         0.938916        -1.950670
 H         4.074680        -0.281567        -1.242644
