19
Iteration:  2433
 C        -0.016582        -0.464069         0.101247
 C         1.365495        -0.070540         0.083673
 C         2.024227         0.747166         1.259884
 C         3.352522         1.162519         0.353987
 O         4.532912         1.524813         0.973524
 C         2.578767         2.135294        -0.500105
 C         1.931961         0.790658        -1.068928
 C         3.109693         0.003023        -0.723913
 O         2.347433        -1.057443        -0.217510
 H        -0.109242        -1.392549         0.593495
 H        -0.582316         0.148335         0.842877
 H        -0.296711        -0.688387        -0.898972
 H         1.407096         1.595817         1.363404
 H         2.235068         0.213789         2.248598
 H         4.864062         0.741240         1.542045
 H         1.912359         2.822421         0.097425
 H         3.079066         2.552903        -1.407828
 H         1.322483         0.824567        -1.944579
 H         3.892119        -0.186200        -1.416522
