19
Iteration:  3588
 C        -0.077677        -0.591139         0.208841
 C         1.313039        -0.045516         0.034418
 C         2.117037         0.705764         1.333620
 C         3.235358         1.165759         0.442341
 O         4.465644         1.452562         0.973050
 C         2.585601         2.205711        -0.658561
 C         1.947994         0.900143        -1.175668
 C         3.174951         0.071454        -0.716460
 O         2.406781        -1.034495        -0.155410
 H        -0.621396        -0.631817         1.253788
 H        -0.892706         0.060320        -0.128632
 H        -0.107874        -1.541029        -0.442086
 H         1.715582         1.501200         2.021364
 H         2.476715        -0.035058         1.912214
 H         4.959456         0.707750         0.806288
 H         2.015217         3.076782        -0.249507
 H         3.420814         2.501722        -1.365685
 H         1.359088         0.717317        -2.108835
 H         4.117975        -0.231074        -1.212518
