19
Iteration:  2678
 C        -0.044560        -0.494586         0.210615
 C         1.391478        -0.010830         0.061661
 C         2.138577         0.673668         1.241178
 C         3.341825         1.128034         0.376810
 O         4.523646         1.527779         1.036675
 C         2.577204         2.173921        -0.588937
 C         1.896947         0.885955        -1.102854
 C         3.155516        -0.032865        -0.726771
 O         2.288030        -1.100702        -0.274996
 H         0.005104        -1.560342         0.697991
 H        -0.739262         0.116826         0.795958
 H        -0.610952        -0.523715        -0.794709
 H         1.563450         1.542899         1.563358
 H         2.348725        -0.178914         1.974738
 H         4.552269         1.447050         1.998482
 H         1.891712         2.993778        -0.177603
 H         3.107591         2.789563        -1.363067
 H         1.306445         0.766940        -2.072469
 H         4.067346        -0.351891        -1.285779
