19
Iteration:  4440
 C        -0.019260        -0.476531         0.199488
 C         1.354347         0.003461         0.105050
 C         2.127255         0.641377         1.318007
 C         3.263492         1.159067         0.408272
 O         4.575926         1.555074         0.936803
 C         2.587846         2.129912        -0.517985
 C         1.922425         0.859050        -1.153414
 C         3.123280        -0.043366        -0.734688
 O         2.295600        -1.090335        -0.301477
 H        -0.610319         0.540838         0.338231
 H        -0.272927        -0.937639        -0.809235
 H        -0.240176        -1.261739         0.901053
 H         1.781201         1.462253         1.880515
 H         2.335284        -0.176210         2.012163
 H         4.478797         1.804932         1.835257
 H         1.891961         2.718915         0.096734
 H         3.378635         2.573265        -1.187556
 H         1.149821         0.605982        -2.062886
 H         3.813158        -0.286524        -1.485210
