19
Iteration:  3687charge 0 multiplicity 1
 C        -0.004773        -0.520609         0.302563
 C         1.365971        -0.042548         0.153570
 C         2.047508         0.787089         1.165271
 C         3.274918         1.191373         0.415025
 O         4.479428         1.532421         1.088940
 C         2.665830         2.104301        -0.587733
 C         1.987460         0.773978        -1.160066
 C         3.149421        -0.034425        -0.768180
 O         2.287552        -1.141200        -0.298498
 H        -0.108729        -1.697297         0.750413
 H        -0.649143         0.118736         1.016738
 H        -0.640997        -0.378298        -0.681517
 H         1.545043         1.735232         1.539438
 H         2.209530         0.157525         1.938273
 H         4.509056         2.500408         0.945107
 H         2.088329         3.029436        -0.295513
 H         3.447010         2.345141        -1.386437
 H         1.425129         0.706682        -2.153027
 H         4.026963        -0.141938        -1.374044
