19
Iteration:  1658charge 0 multiplicity 1
 C        -0.030914        -0.486203         0.219944
 C         1.329736         0.033827         0.054367
 C         2.106672         0.642194         1.227956
 C         3.171360         1.174195         0.427122
 O         4.423070         1.466017         1.064742
 C         2.689366         2.104968        -0.701057
 C         2.026265         0.866505        -1.220525
 C         3.146601         0.018717        -0.651551
 O         2.324302        -1.007060        -0.207565
 H         0.025843        -1.441290         0.709185
 H        -0.503578         0.301618         0.917847
 H        -0.780067        -0.515473        -0.601649
 H         1.464213         1.484123         1.782069
 H         2.418789        -0.270144         1.863708
 H         4.957994         0.667268         1.457989
 H         1.995740         2.987521        -0.517301
 H         3.625628         2.495880        -1.158315
 H         1.492799         0.737569        -2.110313
 H         4.029105        -0.279181        -1.146521
