19
Iteration:  1107
 C        -0.076991        -0.351103         0.237636
 C         1.391210        -0.048297         0.050211
 C         2.041743         0.771381         1.174837
 C         3.289756         1.144701         0.460006
 O         4.444702         1.549680         1.148891
 C         2.716898         2.096739        -0.685981
 C         2.027210         0.865599        -1.147273
 C         3.105509        -0.103119        -0.776282
 O         2.303475        -1.181528        -0.261531
 H        -0.041678        -1.280966         0.974800
 H        -0.567583         0.451382         0.733454
 H        -0.492583        -0.742370        -0.635142
 H         1.309816         1.707214         1.293375
 H         2.165041         0.340030         2.159518
 H         4.501167         1.025440         2.047358
 H         2.248624         3.014595        -0.341996
 H         3.455134         2.515403        -1.410418
 H         1.517232         0.825910        -2.163057
 H         3.948253        -0.505924        -1.426684
