19
Iteration:  3983charge 0 multiplicity 1
 C        -0.092049        -0.399655         0.208423
 C         1.402871        -0.041655         0.077793
 C         2.097611         0.715367         1.264730
 C         3.290861         1.133274         0.336065
 O         4.516816         1.642327         0.991594
 C         2.554910         2.092773        -0.535880
 C         1.920130         0.822073        -1.173307
 C         3.185485        -0.057185        -0.747254
 O         2.374051        -1.144800        -0.214461
 H        -0.266324        -1.435922         0.669676
 H        -0.659813         0.006769         1.041084
 H        -0.533753        -0.456424        -0.772570
 H         1.503264         1.608462         1.568290
 H         2.276316         0.148386         2.075739
 H         4.548749         1.052148         1.872448
 H         1.910058         2.886717        -0.142100
 H         3.242970         2.490357        -1.311663
 H         1.412119         0.715184        -2.122447
 H         3.959679        -0.396990        -1.296729
