19
Iteration:    63charge 0 multiplicity 1
 C        -0.122513        -0.301027         0.022117
 C         1.369681         0.011146         0.051064
 C         2.021901         0.747694         1.294317
 C         3.245588         1.147559         0.489540
 O         4.468698         1.354459         1.058757
 C         2.732410         2.089202        -0.677005
 C         2.032237         0.882665        -1.186412
 C         3.103500        -0.062456        -0.647219
 O         2.328131        -1.138985        -0.076845
 H        -0.402707        -0.878740         0.910179
 H        -0.579863         0.658631        -0.140635
 H        -0.564752        -1.097195        -0.745622
 H         1.448284         1.532495         1.789290
 H         2.349461        -0.086555         1.918941
 H         4.850392         2.056037         0.615872
 H         2.197011         3.037837        -0.383283
 H         3.566177         2.363490        -1.399372
 H         1.628557         0.987092        -2.181090
 H         4.119506        -0.453812        -1.050155
