19
Iteration:  2970charge 0 multiplicity 1
 C        -0.011864        -0.500569         0.200343
 C         1.358307         0.013103         0.043391
 C         2.146038         0.667402         1.206394
 C         3.344884         1.156887         0.392380
 O         4.493652         1.477853         0.994689
 C         2.511390         2.162389        -0.504159
 C         1.911031         0.872621        -1.122015
 C         3.173046         0.072750        -0.773372
 O         2.319736        -1.080924        -0.207053
 H        -0.416830        -0.879320         1.192848
 H        -0.855303         0.229035        -0.122343
 H        -0.070722        -1.445321        -0.387152
 H         1.700596         1.531722         1.800520
 H         2.417552        -0.155695         1.841069
 H         4.675150         0.809755         1.803193
 H         1.786459         2.790592        -0.019281
 H         3.164893         2.594380        -1.253578
 H         1.393192         0.848878        -2.100484
 H         3.958102        -0.248535        -1.487457
