19
Iteration:  4850charge 0 multiplicity 1
 C        -0.017910        -0.663088         0.237127
 C         1.318691         0.076085         0.129556
 C         2.078946         0.770974         1.247485
 C         3.297595         1.140705         0.415839
 O         4.503861         1.482026         0.977804
 C         2.734984         2.223245        -0.598924
 C         1.850966         0.900795        -1.068273
 C         3.077363         0.035754        -0.753979
 O         2.343049        -1.117028        -0.252538
 H        -0.743377         0.100546         0.475205
 H        -0.366705        -1.139452        -0.666697
 H         0.076614        -1.549282         0.972933
 H         1.634406         1.733492         1.696665
 H         2.298862        -0.085670         1.973989
 H         4.935463         0.672153         0.985926
 H         2.197916         3.131855        -0.231607
 H         3.370050         2.648307        -1.407641
 H         1.102061         0.636410        -1.881307
 H         3.814328        -0.041313        -1.636621
