19
Iteration:  2913charge 0 multiplicity 1
 C        -0.052853        -0.568178         0.219219
 C         1.355928         0.027472         0.084109
 C         2.100378         0.597620         1.299768
 C         3.309506         1.185106         0.396481
 O         4.465666         1.507269         1.026431
 C         2.618457         2.163414        -0.636497
 C         1.894078         0.885693        -1.168724
 C         3.129758         0.024969        -0.705874
 O         2.353939        -1.028514        -0.237992
 H         0.068629        -1.361586         1.003151
 H        -0.879943         0.264248         0.480950
 H        -0.409038        -0.903774        -0.763888
 H         1.576111         1.387607         1.938810
 H         2.436373        -0.097863         1.929310
 H         4.983570         0.716584         1.283380
 H         2.063709         3.039569        -0.224335
 H         3.272966         2.728912        -1.367880
 H         1.482624         0.905670        -2.206290
 H         3.983864        -0.371675        -1.361051
