19
Iteration:  2347charge 0 multiplicity 1
 C        -0.058932        -0.463798         0.311861
 C         1.365621        -0.030292         0.036765
 C         2.066462         0.707859         1.274528
 C         3.302330         1.113348         0.410762
 O         4.439872         1.577430         1.086111
 C         2.626250         2.095928        -0.570660
 C         1.938361         0.812239        -1.160327
 C         3.199342         0.031083        -0.817038
 O         2.339257        -1.080547        -0.323025
 H        -0.321872        -0.671426         1.391310
 H        -0.770461         0.292305        -0.172696
 H        -0.241784        -1.414167        -0.252934
 H         1.650436         1.609851         1.714502
 H         2.254298        -0.239624         2.009591
 H         4.831335         0.803801         1.643622
 H         2.119692         3.039398        -0.306300
 H         3.386729         2.515829        -1.275512
 H         1.346369         0.798955        -2.057407
 H         3.963482        -0.122394        -1.548673
