19
Iteration:  2246charge 0 multiplicity 1
 C        -0.080512        -0.502738         0.225917
 C         1.269991         0.061379         0.106607
 C         2.092216         0.638147         1.337203
 C         3.293958         1.164526         0.386658
 O         4.443267         1.576775         1.056877
 C         2.622346         2.095181        -0.699259
 C         1.984867         0.854795        -1.202990
 C         3.262154         0.040154        -0.764333
 O         2.297753        -1.082594        -0.252858
 H        -0.245863        -1.458102         0.667808
 H        -0.571562         0.152209         1.089386
 H        -0.492445        -0.508081        -0.771870
 H         1.649776         1.309247         2.027963
 H         2.562894        -0.368659         1.774619
 H         4.774594         0.785235         1.631987
 H         1.935881         2.933526        -0.339801
 H         3.493351         2.397922        -1.344788
 H         1.382623         0.702119        -2.124477
 H         4.267319        -0.303780        -0.970106
