19
Iteration:  4806charge 0 multiplicity 1
 C        -0.008653        -0.469573         0.318827
 C         1.365522         0.042375         0.064865
 C         2.080735         0.751004         1.259562
 C         3.257437         1.150921         0.316078
 O         4.445787         1.331687         1.062791
 C         2.562738         2.171797        -0.626755
 C         1.930724         0.882047        -1.118476
 C         3.103610         0.066078        -0.753575
 O         2.412708        -1.138140        -0.214867
 H        -0.650975         0.139290         0.901898
 H        -0.576919        -0.809645        -0.513034
 H         0.315660        -1.469956         0.720283
 H         1.489525         1.608351         1.598610
 H         2.370597        -0.054506         1.952672
 H         5.123589         1.719860         0.588040
 H         1.896220         2.912328        -0.150949
 H         3.166608         2.741826        -1.344391
 H         1.626619         0.860137        -2.173440
 H         3.952967        -0.132054        -1.478607
