19
Iteration:  2818
 C         0.013746        -0.483690         0.220195
 C         1.398435         0.012485         0.032867
 C         2.142652         0.712912         1.218489
 C         3.287072         1.177538         0.382978
 O         4.547783         1.477998         1.038532
 C         2.529543         2.147045        -0.484045
 C         1.877705         0.819941        -1.147271
 C         3.142271        -0.026541        -0.792469
 O         2.307569        -1.074548        -0.272269
 H         0.121952        -1.197296         1.060213
 H        -0.696824         0.223183         0.461242
 H        -0.325419        -0.980743        -0.691090
 H         1.478880         1.587714         1.513463
 H         2.261022         0.096763         2.228529
 H         4.347044         1.242880         2.053425
 H         2.005792         2.935046         0.007355
 H         3.090585         2.697934        -1.203137
 H         1.394671         0.772417        -2.148247
 H         3.902692        -0.394324        -1.529560
