19
Iteration:  4358charge 0 multiplicity 1
 C        -0.092771        -0.603416         0.272854
 C         1.394152        -0.030030         0.035503
 C         2.042744         0.804373         1.242881
 C         3.256064         1.171094         0.359640
 O         4.568768         1.309042         0.986170
 C         2.612074         2.204884        -0.540213
 C         1.902229         0.885429        -1.167084
 C         3.178507         0.069838        -0.763134
 O         2.354376        -1.067532        -0.205005
 H        -0.252589        -0.457267         1.316371
 H        -0.848931        -0.134705        -0.354862
 H         0.188169        -1.707407         0.167492
 H         1.441880         1.791193         1.401244
 H         2.208688         0.180209         2.119195
 H         4.345245         1.974520         1.747249
 H         2.031589         3.102707        -0.213964
 H         3.155313         2.594993        -1.396758
 H         1.255188         0.791945        -2.036674
 H         4.152593        -0.279912        -1.349271
