19
Iteration:  4261charge 0 multiplicity 1
 C        -0.087751        -0.370966         0.286781
 C         1.405986        -0.116968         0.083707
 C         2.069848         0.662936         1.315064
 C         3.250094         1.170148         0.364417
 O         4.455118         1.571236         0.953559
 C         2.565756         2.149720        -0.638398
 C         1.970566         0.771027        -1.215420
 C         3.177132        -0.009316        -0.701694
 O         2.371991        -1.107718        -0.212460
 H        -0.365768        -1.351501         0.633829
 H        -0.359388         0.481741         0.906231
 H        -0.377898        -0.336809        -0.836371
 H         1.494514         1.455405         1.734074
 H         2.389897        -0.144355         1.943867
 H         4.732135         1.061625         1.738756
 H         1.933769         2.950090        -0.169045
 H         3.407124         2.575748        -1.243016
 H         1.430666         0.755654        -2.101017
 H         4.217826        -0.188854        -1.214868
