19
Iteration:   286charge 0 multiplicity 1
 C        -0.086316        -0.439452         0.167889
 C         1.356044         0.005122         0.069062
 C         2.004960         0.757850         1.216436
 C         3.279262         1.179876         0.425774
 O         4.384560         1.423633         1.207846
 C         2.801633         2.076985        -0.735981
 C         2.009625         0.845427        -1.089966
 C         3.133468         0.022612        -0.686564
 O         2.298946        -1.079379        -0.243566
 H        -0.232768        -1.223170         0.955148
 H        -0.753500         0.435677         0.525350
 H        -0.461299        -0.715122        -0.827619
 H         1.656423         1.636900         1.630334
 H         2.313702         0.079229         1.990880
 H         5.023750         0.916456         0.781834
 H         2.247588         2.990222        -0.465507
 H         3.591765         2.257012        -1.475575
 H         1.828253         0.731363        -2.236353
 H         3.816210        -0.242675        -1.505745
