19
Iteration:  2375charge 0 multiplicity 1
 C        -0.028455        -0.438797         0.272908
 C         1.384720        -0.059390         0.094472
 C         2.083809         0.616022         1.212137
 C         3.336784         1.140883         0.393191
 O         4.489195         1.595485         1.054517
 C         2.572864         2.205135        -0.542882
 C         1.979175         0.862126        -1.129417
 C         3.142960        -0.059662        -0.776551
 O         2.306434        -1.145363        -0.317968
 H        -0.269055        -0.753185         1.266040
 H        -0.622107         0.306956        -0.295298
 H        -0.301073        -1.241293        -0.408854
 H         1.559377         1.539697         1.611844
 H         2.137382         0.005105         2.026279
 H         4.626412         1.124457         1.896356
 H         1.919781         3.023015        -0.194012
 H         3.246343         2.695461        -1.292390
 H         1.293645         0.900012        -2.014467
 H         3.979265        -0.244861        -1.481199
