19
Iteration:  4514charge 0 multiplicity 1
 C         0.007978        -0.631976         0.299309
 C         1.317439         0.009054         0.101810
 C         2.095170         0.726239         1.227615
 C         3.298517         1.124607         0.369427
 O         4.526661         1.482224         1.051128
 C         2.627918         2.175974        -0.600443
 C         1.874439         0.935058        -1.134911
 C         3.120124        -0.000442        -0.768004
 O         2.302895        -0.996638        -0.311483
 H        -0.697691         0.132816        -0.126068
 H        -0.113664        -1.651262        -0.100269
 H        -0.285099        -0.571273         1.355953
 H         1.484332         1.478802         1.749716
 H         2.270269        -0.173278         1.926280
 H         5.033585         0.738052         1.365868
 H         2.049443         2.959868        -0.099528
 H         3.425290         2.517660        -1.323978
 H         1.406468         0.885219        -2.090009
 H         4.010825        -0.384485        -1.246585
