19
Iteration:   665
 C        -0.145227        -0.361708         0.132462
 C         1.352398         0.003260         0.053668
 C         2.055601         0.796808         1.208080
 C         3.302090         1.105893         0.405283
 O         4.521401         1.479965         1.108904
 C         2.688794         2.111411        -0.580906
 C         1.967403         0.823297        -1.108615
 C         3.156580        -0.073920        -0.743473
 O         2.313466        -1.175212        -0.237153
 H        -0.235063        -1.178122         0.905615
 H        -0.668842         0.554756         0.533192
 H        -0.360697        -0.917464        -0.884785
 H         1.391701         1.571889         1.474668
 H         2.141894         0.191554         2.127057
 H         4.356270         2.117569         1.794887
 H         2.332498         3.111596        -0.196552
 H         3.415997         2.273033        -1.406315
 H         1.661340         0.691355        -2.167015
 H         4.034746        -0.406364        -1.337445
