19
Iteration:  2688
 C        -0.058891        -0.476774         0.201754
 C         1.354564        -0.009945         0.083184
 C         2.180549         0.646946         1.319009
 C         3.261997         1.156861         0.418123
 O         4.478766         1.509990         0.970927
 C         2.580819         2.166382        -0.613522
 C         1.925566         0.874288        -1.127050
 C         3.139634         0.002334        -0.725624
 O         2.335958        -1.069249        -0.274917
 H        -0.107249        -1.554150         0.693062
 H        -0.659827         0.278887         0.738746
 H        -0.393292        -0.646295        -0.901477
 H         1.652221         1.362301         1.925344
 H         2.483304        -0.222420         2.027318
 H         4.395845         1.254409         1.842475
 H         2.034725         2.982645        -0.050162
 H         3.245621         2.375058        -1.474601
 H         1.557568         0.892315        -2.200347
 H         4.102008        -0.335896        -1.224050
