19
Iteration:  1139charge 0 multiplicity 1
 C        -0.120115        -0.299495         0.168889
 C         1.373112         0.042112        -0.001331
 C         2.098679         0.641484         1.204676
 C         3.287794         1.081284         0.442407
 O         4.419301         1.541825         1.080487
 C         2.606657         2.085396        -0.666788
 C         2.050380         0.827025        -1.175286
 C         3.166301        -0.061092        -0.652530
 O         2.325816        -1.073200        -0.170581
 H        -0.089971        -0.927313         1.218106
 H        -0.819027         0.555251         0.248002
 H        -0.450419        -0.991785        -0.571057
 H         1.612422         1.538226         1.718110
 H         2.368076        -0.078154         1.899368
 H         4.864364         0.831450         1.524933
 H         1.959239         2.819247        -0.222530
 H         3.368065         2.415055        -1.406020
 H         1.670170         0.701985        -2.250010
 H         3.996668        -0.402852        -1.367614
