19
Iteration:  3294charge 0 multiplicity 1
 C        -0.038169        -0.497983         0.253206
 C         1.330968         0.022831         0.100165
 C         2.058242         0.643295         1.267443
 C         3.263454         1.149753         0.440130
 O         4.482060         1.544491         1.012393
 C         2.609243         2.114639        -0.644972
 C         1.921447         0.803926        -1.167466
 C         3.128099         0.055328        -0.707362
 O         2.424256        -1.043175        -0.250169
 H        -0.148236        -1.442723         0.897770
 H        -0.668797         0.355312         0.649569
 H        -0.611003        -0.681266        -0.739603
 H         1.521908         1.277149         1.809502
 H         2.418115        -0.245800         1.869643
 H         5.031378         0.821537         1.082344
 H         1.919953         2.834134        -0.196011
 H         3.336072         2.627982        -1.288964
 H         1.435105         0.796812        -2.137028
 H         3.944706        -0.103904        -1.446445
