19
Iteration:  1490charge 0 multiplicity 1
 C        -0.057334        -0.442486         0.110512
 C         1.357855         0.002699         0.073859
 C         2.069961         0.802949         1.255614
 C         3.306479         1.138396         0.447273
 O         4.501010         1.521091         0.999533
 C         2.638064         2.071728        -0.573282
 C         1.996397         0.826285        -1.122193
 C         3.121549        -0.058826        -0.724659
 O         2.297810        -1.078563        -0.212291
 H        -0.108113        -1.345643         0.727186
 H        -0.808824         0.236799         0.298455
 H        -0.399725        -0.834834        -0.805269
 H         1.434946         1.726227         1.683786
 H         2.293320         0.105211         2.058301
 H         4.872073         0.749961         1.615143
 H         1.942597         2.713547        -0.043535
 H         3.268510         2.759601        -1.158981
 H         1.469200         0.770263        -2.082939
 H         4.018681        -0.292094        -1.306456
