19
Iteration:  1103charge 0 multiplicity 1
 C        -0.044071        -0.393491         0.237988
 C         1.347348        -0.032479         0.038067
 C         2.061837         0.759749         1.175549
 C         3.289872         1.190059         0.459362
 O         4.442658         1.525608         1.143235
 C         2.738131         2.092710        -0.703119
 C         2.007931         0.874459        -1.101444
 C         3.096695        -0.097654        -0.762902
 O         2.308828        -1.159444        -0.256142
 H        -0.049736        -1.262982         0.958760
 H        -0.614165         0.489832         0.721108
 H        -0.617772        -0.650169        -0.749392
 H         1.471143         1.586122         1.272658
 H         2.043248         0.205937         2.109683
 H         4.476518         1.135055         1.987245
 H         2.208851         3.016714        -0.435326
 H         3.479316         2.348454        -1.454231
 H         1.653323         0.790309        -2.155927
 H         3.911466        -0.484965        -1.380766
