19
Iteration:  2164charge 0 multiplicity 1
 C        -0.068696        -0.526321         0.089307
 C         1.367864         0.015169         0.096671
 C         2.142248         0.616387         1.312347
 C         3.251696         1.193700         0.416149
 O         4.523499         1.437169         0.950072
 C         2.545608         2.201747        -0.617487
 C         1.930710         0.888922        -1.159421
 C         3.138577         0.013722        -0.681115
 O         2.356236        -1.018317        -0.163070
 H        -0.317755        -0.821719         1.118239
 H        -0.750733         0.161526        -0.262327
 H        -0.144805        -1.356393        -0.612049
 H         1.587606         1.498289         1.893367
 H         2.516201        -0.063440         2.001904
 H         4.664001         0.967268         1.751544
 H         1.970069         3.016172        -0.233215
 H         3.310375         2.569195        -1.292553
 H         1.352620         0.780765        -2.095465
 H         3.999772        -0.532538        -1.152766
