19
Iteration:  1720charge 0 multiplicity 1
 C        -0.029614        -0.473559         0.103942
 C         1.372074         0.086829         0.086911
 C         2.100385         0.673573         1.234000
 C         3.301216         1.137051         0.401221
 O         4.507995         1.504012         1.011820
 C         2.624407         2.175916        -0.583819
 C         1.938417         0.839368        -1.092829
 C         3.102166        -0.068775        -0.722671
 O         2.311797        -1.073705        -0.197215
 H        -0.185569        -0.976260         1.090379
 H        -0.756960         0.364383        -0.119370
 H        -0.204330        -1.202189        -0.776564
 H         1.656502         1.413127         1.907939
 H         2.445945        -0.105810         1.832492
 H         4.373091         1.163221         1.956196
 H         1.976714         2.933594        -0.098064
 H         3.386818         2.569514        -1.269737
 H         1.315718         0.660724        -2.054641
 H         3.926870        -0.390711        -1.436250
