19
Iteration:  2423
 C        -0.073277        -0.478330         0.106284
 C         1.411070        -0.063066         0.152853
 C         2.027318         0.671306         1.273086
 C         3.287874         1.180031         0.390863
 O         4.527092         1.504951         0.947902
 C         2.592256         2.148066        -0.589913
 C         1.886474         0.896800        -1.083677
 C         3.183969         0.020620        -0.759254
 O         2.365614        -1.099616        -0.176822
 H        -0.099511        -1.379045         0.696594
 H        -0.754001         0.331725         0.415081
 H        -0.538659        -0.617861        -0.853061
 H         1.421230         1.430403         1.703377
 H         2.378621         0.035711         2.225636
 H         4.741769         0.872159         1.645400
 H         2.019948         2.931590         0.010862
 H         3.220490         2.679632        -1.361059
 H         1.518038         0.694962        -2.062313
 H         3.982060        -0.213157        -1.453770
