19
Iteration:  1143charge 0 multiplicity 1
 C        -0.111592        -0.285277         0.158425
 C         1.374878         0.021075        -0.002620
 C         2.076230         0.619955         1.223712
 C         3.275893         1.107705         0.431994
 O         4.452420         1.539351         1.067313
 C         2.611728         2.114136        -0.674756
 C         2.041844         0.847613        -1.195911
 C         3.177370        -0.054800        -0.636438
 O         2.318066        -1.102615        -0.140809
 H        -0.071959        -0.791712         1.066192
 H        -0.924574         0.428706         0.146895
 H        -0.500883        -1.018260        -0.596920
 H         1.504398         1.449778         1.766702
 H         2.513945        -0.217970         1.956244
 H         4.952304         0.773221         1.556210
 H         1.892566         2.901254        -0.301153
 H         3.379188         2.334301        -1.432638
 H         1.597021         0.749090        -2.127675
 H         3.930972        -0.280900        -1.319757
