19
Iteration:  1549charge 0 multiplicity 1
 C        -0.116002        -0.410389         0.260718
 C         1.394590        -0.028569         0.061764
 C         2.072667         0.770720         1.237029
 C         3.324038         1.075678         0.454064
 O         4.449661         1.506905         1.092715
 C         2.584260         2.170528        -0.592080
 C         1.959424         0.856763        -1.128973
 C         3.142145        -0.095691        -0.802711
 O         2.404214        -1.126795        -0.352450
 H        -0.371166        -0.443633         1.271477
 H        -0.733925         0.464066        -0.081737
 H        -0.060742        -1.356240        -0.329372
 H         1.439860         1.742119         1.361317
 H         2.083111         0.261559         2.286481
 H         4.647689         0.894893         1.785786
 H         2.088125         3.054336        -0.040882
 H         3.357963         2.501528        -1.330131
 H         1.459871         0.778285        -2.094469
 H         4.054138        -0.296786        -1.367462
