19
Iteration:  2595
 C        -0.040980        -0.490915         0.172215
 C         1.367308         0.002135         0.124509
 C         2.074776         0.679258         1.269091
 C         3.361682         1.116906         0.315260
 O         4.504338         1.553381         1.052935
 C         2.576985         2.123180        -0.495608
 C         1.906205         0.867734        -1.119164
 C         3.126097        -0.013614        -0.810463
 O         2.342472        -1.072825        -0.247409
 H        -0.181028        -1.130486         1.020106
 H        -0.918623         0.318723         0.254519
 H        -0.201077        -1.155501        -0.670319
 H         1.530150         1.732936         1.399301
 H         2.139170         0.203357         2.231607
 H         5.001671         0.644086         1.291689
 H         1.935061         2.721908         0.101494
 H         3.193525         2.520936        -1.329267
 H         1.456464         0.970558        -2.092651
 H         3.991270        -0.173113        -1.376567
