19
Iteration:   919charge 0 multiplicity 1
 C        -0.085933        -0.490981         0.037078
 C         1.333473         0.025469         0.085446
 C         2.094042         0.837615         1.250140
 C         3.241677         1.166767         0.438609
 O         4.551987         1.260533         1.032956
 C         2.597062         2.121355        -0.653339
 C         1.960934         0.851308        -1.212539
 C         3.147903         0.019126        -0.665491
 O         2.338876        -1.055635        -0.060079
 H        -0.230437        -1.343894         0.691356
 H        -0.739425         0.326007         0.418905
 H        -0.315711        -0.722602        -1.012497
 H         1.609879         1.790971         1.805775
 H         2.423771         0.041959         1.932388
 H         4.615434         2.090953         1.663582
 H         1.971976         3.028703        -0.613004
 H         3.370738         2.496167        -1.375270
 H         1.526746         0.783711        -2.167739
 H         4.002355        -0.393991        -1.073540
