19
Iteration:  2734
 C        -0.092955        -0.479480         0.147737
 C         1.392610        -0.049753         0.088547
 C         2.079747         0.750538         1.219903
 C         3.352147         1.154156         0.361802
 O         4.521996         1.536419         1.029811
 C         2.541167         2.139936        -0.454862
 C         1.893840         0.821194        -1.077187
 C         3.186884         0.008985        -0.742256
 O         2.350490        -1.111734        -0.279426
 H        -0.305694        -0.858985         1.216985
 H        -0.650934         0.452219        -0.049500
 H        -0.399838        -1.350712        -0.576825
 H         1.450066         1.679738         1.626516
 H         2.383306         0.047225         1.979626
 H         5.036643         0.786627         1.066251
 H         1.748282         2.736914         0.085763
 H         3.190068         2.639185        -1.202697
 H         1.386371         0.856680        -2.024924
 H         3.922768        -0.174198        -1.462782
