19
Iteration:   541
 C        -0.148944        -0.367883         0.235913
 C         1.386419         0.066547         0.055239
 C         2.024534         0.741485         1.221106
 C         3.319921         1.064455         0.396929
 O         4.440165         1.426874         1.205110
 C         2.702571         2.113832        -0.687948
 C         2.071492         0.832391        -1.172216
 C         3.174691        -0.068157        -0.732137
 O         2.308320        -1.112827        -0.257449
 H        -0.081813        -1.270620         0.808549
 H        -0.763459         0.387640         0.673940
 H        -0.565564        -0.437115        -0.812896
 H         1.432796         1.510305         1.565976
 H         2.271821         0.016950         1.962105
 H         4.385681         2.343499         1.352685
 H         1.966315         2.795868        -0.281413
 H         3.341447         2.561193        -1.457357
 H         1.596818         0.607416        -2.177536
 H         4.033260        -0.386280        -1.404510
