19
Iteration:  2000
 C        -0.073132        -0.522975         0.117694
 C         1.368633        -0.018937         0.102361
 C         2.089043         0.735938         1.270384
 C         3.303414         1.163518         0.368513
 O         4.533999         1.473595         0.987595
 C         2.552304         2.141261        -0.580878
 C         1.941613         0.880408        -1.100728
 C         3.151542        -0.009127        -0.729944
 O         2.340054        -1.025129        -0.191154
 H        -0.162516        -1.330436         0.987716
 H        -0.887830         0.182909         0.264135
 H        -0.134767        -0.972412        -0.915712
 H         1.465756         1.724274         1.446844
 H         2.229892         0.110837         2.218114
 H         4.625987         0.891534         1.795952
 H         1.959454         2.823134         0.026722
 H         3.344868         2.494672        -1.297367
 H         1.474651         0.692803        -2.128711
 H         4.059264        -0.472188        -1.323030
