19
Iteration:  4821
 C         0.016427        -0.644282         0.293421
 C         1.366864         0.010620         0.086897
 C         2.094874         0.759216         1.202845
 C         3.283643         1.187352         0.411364
 O         4.484415         1.352955         1.094305
 C         2.588457         2.187584        -0.621399
 C         1.857927         0.878673        -1.205977
 C         3.163457         0.019073        -0.766606
 O         2.326537        -0.959797        -0.218059
 H        -0.514427         0.131266         0.925412
 H        -0.479669        -0.694083        -0.708779
 H        -0.068469        -1.484060         0.950328
 H         1.643249         1.557504         1.750958
 H         2.337752         0.062533         2.031054
 H         5.144292         1.178175         0.340090
 H         2.005951         3.036261        -0.204482
 H         3.335725         2.501700        -1.388595
 H         1.104597         0.686998        -2.005372
 H         4.011795        -0.288672        -1.324366
