19
Iteration:   454charge 0 multiplicity 1
 C        -0.085555        -0.455664         0.050581
 C         1.333863         0.063018         0.118272
 C         1.975696         0.834609         1.254714
 C         3.320563         1.171709         0.427934
 O         4.569547         1.335344         1.045374
 C         2.713208         2.156174        -0.590503
 C         1.931130         0.838999        -1.095647
 C         3.147876        -0.037551        -0.742904
 O         2.347221        -1.110994        -0.198382
 H        -0.412081        -1.059374         0.915745
 H        -0.840610         0.318583        -0.006377
 H        -0.132591        -1.148409        -0.869987
 H         1.466341         1.726989         1.451882
 H         2.060322         0.255871         2.165632
 H         4.345484         1.677797         1.877000
 H         2.083512         2.891474        -0.070702
 H         3.339982         2.548211        -1.406484
 H         1.370627         0.428317        -1.975346
 H         3.975681        -0.334489        -1.511739
