19
Iteration:  2202charge 0 multiplicity 1
 C        -0.069661        -0.434564         0.237304
 C         1.364730        -0.068723         0.073667
 C         2.080980         0.725886         1.239605
 C         3.293950         1.091116         0.401167
 O         4.440822         1.588022         1.056442
 C         2.618374         2.116720        -0.542762
 C         1.956674         0.859023        -1.134313
 C         3.150284        -0.083952        -0.801183
 O         2.393398        -1.071684        -0.328081
 H        -0.163872        -1.008267         1.164531
 H        -0.706298         0.436287         0.700450
 H        -0.454324        -1.045939        -0.578335
 H         1.604078         1.607596         1.287409
 H         2.214951         0.013969         2.128541
 H         4.533210         0.971208         1.902685
 H         2.137589         3.052200        -0.102249
 H         3.313628         2.373938        -1.380411
 H         1.281688         0.834851        -2.005704
 H         4.108622        -0.206903        -1.272407
