19
Iteration:   422
 C        -0.043769        -0.401138         0.298929
 C         1.394898        -0.007317        -0.018806
 C         1.977946         0.618414         1.186463
 C         3.263273         1.163377         0.395525
 O         4.456318         1.355550         1.107729
 C         2.722000         2.185696        -0.698080
 C         1.995895         0.904497        -1.236536
 C         3.191240         0.012073        -0.655681
 O         2.311001        -1.048592        -0.201947
 H        -0.231039        -0.477081         1.362122
 H        -0.636729         0.356179        -0.151182
 H        -0.509302        -1.250877        -0.320878
 H         1.313594         1.440771         1.706963
 H         2.233825        -0.212014         1.877809
 H         4.172436         1.426696         2.111479
 H         2.127949         3.032776        -0.290525
 H         3.486506         2.511185        -1.441315
 H         1.575311         0.671161        -2.212044
 H         4.133778        -0.364801        -1.211044
