19
Iteration:  2752charge 0 multiplicity 1
 C        -0.053326        -0.498310         0.212613
 C         1.346862         0.012796         0.098030
 C         2.100380         0.649073         1.322902
 C         3.289061         1.158891         0.411527
 O         4.519355         1.508233         1.059607
 C         2.527288         2.166492        -0.566213
 C         1.957213         0.914820        -1.197140
 C         3.121828        -0.007221        -0.783079
 O         2.353117        -1.084463        -0.263870
 H        -0.316813        -0.820464         1.233625
 H        -0.791841         0.067329        -0.309042
 H        -0.128047        -1.354650        -0.465219
 H         1.672047         1.567283         1.566414
 H         2.418433        -0.049843         2.193263
 H         5.106821         0.794974         1.055713
 H         1.965925         2.904506         0.017493
 H         3.138531         2.796901        -1.236235
 H         1.427057         0.655874        -2.160796
 H         4.033387        -0.340026        -1.419940
