19
Iteration:  2945
 C        -0.017920        -0.513556         0.225790
 C         1.390666        -0.077050         0.101469
 C         2.030191         0.726659         1.324321
 C         3.301082         1.164581         0.448899
 O         4.491152         1.480995         1.000083
 C         2.620543         2.153725        -0.550175
 C         1.861799         0.920008        -1.150356
 C         3.079442         0.071564        -0.761317
 O         2.441728        -1.108624        -0.314265
 H        -0.325237        -0.934121         1.232599
 H        -0.808760         0.381832        -0.071031
 H        -0.342308        -1.326460        -0.460370
 H         1.357365         1.601741         1.474609
 H         2.274155         0.141132         2.122564
 H         4.916237         0.645418         1.208499
 H         2.027046         2.907352         0.006564
 H         3.373428         2.460089        -1.326765
 H         1.437240         0.775062        -2.170581
 H         3.937513        -0.202817        -1.464152
