19
Iteration:  3570
 C        -0.012801        -0.633367         0.239481
 C         1.336473         0.036717         0.166833
 C         2.057089         0.674071         1.255009
 C         3.261529         1.212414         0.389797
 O         4.514920         1.484873         0.987512
 C         2.634936         2.164367        -0.645896
 C         1.976653         0.890388        -1.165299
 C         3.096855         0.059163        -0.704708
 O         2.317486        -1.048305        -0.246331
 H        -0.137642        -0.786512         1.280570
 H        -0.822642         0.052582        -0.147848
 H        -0.001793        -1.480167        -0.352689
 H         1.431842         1.495968         1.663734
 H         2.413099        -0.139914         2.131959
 H         4.734549         0.750247         1.498376
 H         1.978265         2.948235        -0.295559
 H         3.399439         2.494115        -1.336943
 H         1.498049         0.788668        -2.214742
 H         3.936328        -0.190415        -1.321438
