19
Iteration:  4524charge 0 multiplicity 1
 C        -0.065639        -0.603946         0.312585
 C         1.337997        -0.036281         0.116639
 C         2.108185         0.651269         1.254275
 C         3.246418         1.176608         0.372154
 O         4.510000         1.521347         1.021881
 C         2.709830         2.162776        -0.587610
 C         1.959913         0.942847        -1.203630
 C         3.086039         0.047698        -0.744320
 O         2.247532        -1.048843        -0.277294
 H        -0.889776        -0.148369        -0.196638
 H        -0.018045        -1.533593        -0.263462
 H        -0.344046        -0.861427         1.364795
 H         1.626917         1.492552         1.814132
 H         2.612392        -0.085649         2.009665
 H         5.090531         0.713696         1.247910
 H         2.303847         3.011926        -0.068399
 H         3.288974         2.645863        -1.382403
 H         1.584375         0.982306        -2.149812
 H         3.981405        -0.106788        -1.344210
