19
Iteration:  2753charge 0 multiplicity 1
 C        -0.049613        -0.497883         0.211581
 C         1.348756         0.019402         0.101655
 C         2.092152         0.643981         1.329016
 C         3.289133         1.160581         0.405079
 O         4.516270         1.510756         1.060312
 C         2.526079         2.165025        -0.571505
 C         1.956302         0.921334        -1.201600
 C         3.124697        -0.009744        -0.777288
 O         2.353796        -1.081810        -0.263664
 H        -0.317351        -0.827153         1.258330
 H        -0.782340         0.081201        -0.300351
 H        -0.116463        -1.398109        -0.464105
 H         1.694103         1.505847         1.579615
 H         2.422244        -0.055104         2.177742
 H         5.118629         0.742037         1.046901
 H         1.952558         2.908063         0.016192
 H         3.176708         2.753407        -1.255162
 H         1.429951         0.688908        -2.164228
 H         4.007120        -0.332705        -1.413822
