19
Iteration:  1197charge 0 multiplicity 1
 C        -0.028366        -0.452218         0.020796
 C         1.342747         0.057700         0.093517
 C         2.026320         0.781902         1.211939
 C         3.315643         1.134387         0.408299
 O         4.574051         1.515002         1.008091
 C         2.658833         2.106391        -0.535336
 C         1.932570         0.878243        -1.134236
 C         3.105559        -0.123804        -0.752293
 O         2.293999        -1.115939        -0.092526
 H        -0.469700        -0.966544         0.935943
 H        -0.779674         0.329828        -0.161249
 H        -0.114450        -1.172387        -0.860100
 H         1.652811         1.764719         1.659378
 H         2.046032        -0.044095         2.043019
 H         4.813924         0.846854         1.740582
 H         2.173592         2.947889         0.062160
 H         3.222611         2.692747        -1.288186
 H         1.375356         0.832390        -2.002690
 H         3.912565        -0.451196        -1.339817
