19
Iteration:  3721charge 0 multiplicity 1
 C        -0.052164        -0.580246         0.227889
 C         1.335731         0.029576         0.110569
 C         2.070638         0.788872         1.217811
 C         3.234566         1.186342         0.346116
 O         4.480596         1.339283         1.047764
 C         2.577841         2.132177        -0.642021
 C         1.921518         0.834603        -1.188687
 C         3.170021         0.036636        -0.734152
 O         2.414690        -1.014870        -0.089117
 H         0.065887        -1.716223         0.623549
 H        -0.609061         0.190232         0.850102
 H        -0.456350        -0.652062        -0.815812
 H         1.518430         1.522602         1.772270
 H         2.340940        -0.020192         1.798677
 H         4.949492         2.093078         0.819884
 H         1.895039         2.986504        -0.480342
 H         3.368744         2.409691        -1.414136
 H         1.374939         0.799788        -2.180646
 H         4.086523        -0.188799        -1.164323
