19
Iteration:  4903charge 0 multiplicity 1
 C        -0.074884        -0.313250         0.269049
 C         1.405485        -0.076815         0.079822
 C         2.193639         0.598583         1.237920
 C         3.234627         1.210739         0.380877
 O         4.544750         1.422702         0.941604
 C         2.424340         2.112207        -0.530724
 C         1.903511         0.844703        -1.121602
 C         3.158406         0.045855        -0.733858
 O         2.414576        -1.098668        -0.291778
 H        -0.716432         0.562521         0.167644
 H        -0.391876        -1.082610        -0.441910
 H        -0.186213        -0.920549         1.287977
 H         1.504365         1.346967         1.863303
 H         2.627969        -0.276472         1.801642
 H         4.410454         1.951504         1.721931
 H         1.995941         2.932023         0.191854
 H         2.946841         2.565777        -1.417962
 H         1.308272         0.651330        -2.082649
 H         4.173981        -0.229083        -1.287607
