19
Iteration:  2723charge 0 multiplicity 1
 C        -0.037084        -0.443961         0.164956
 C         1.357908        -0.042483         0.077128
 C         2.031806         0.599572         1.279354
 C         3.295418         1.163423         0.367101
 O         4.524441         1.546314         0.993397
 C         2.529113         2.114198        -0.537769
 C         1.892903         0.913792        -1.083837
 C         3.172485         0.015089        -0.715622
 O         2.408881        -1.110379        -0.250595
 H        -0.349351        -0.913744         1.164619
 H        -0.662485         0.464661         0.076179
 H        -0.364802        -1.087927        -0.733041
 H         1.537799         1.576026         1.682766
 H         2.327592        -0.017011         2.146244
 H         4.959884         0.735248         1.213016
 H         2.160084         3.040730        -0.058367
 H         3.147877         2.533848        -1.360342
 H         1.415526         0.873232        -2.053848
 H         3.944627        -0.259785        -1.389304
