19
Iteration:  4202
 C        -0.042383        -0.597937         0.224374
 C         1.335343         0.005186         0.104184
 C         2.059510         0.830273         1.208103
 C         3.309642         1.192723         0.385077
 O         4.483041         1.507043         1.016374
 C         2.666279         2.154746        -0.641127
 C         1.948978         0.843111        -1.067479
 C         3.108076        -0.045445        -0.774013
 O         2.346838        -1.103398        -0.176412
 H         0.065964        -1.637843         0.653417
 H        -0.850081        -0.092516         0.777692
 H        -0.550400        -0.644547        -0.645643
 H         1.456075         1.735199         1.577306
 H         2.061908         0.319526         2.162668
 H         5.053063         0.791130         1.175437
 H         2.061875         3.017941        -0.287190
 H         3.452936         2.474981        -1.340187
 H         1.452060         0.953796        -2.102150
 H         3.852592        -0.210862        -1.488805
