19
Iteration:   518charge 0 multiplicity 1
 C        -0.116925        -0.337919         0.097094
 C         1.420975        -0.063746        -0.030263
 C         2.041165         0.755426         1.187921
 C         3.256955         1.130914         0.503908
 O         4.529618         1.420283         1.068529
 C         2.645587         2.106152        -0.580404
 C         1.946358         0.825262        -1.153351
 C         3.181399        -0.036936        -0.648359
 O         2.304144        -1.127753        -0.198250
 H        -0.134241        -1.331125         0.616756
 H        -0.541444         0.413328         0.777601
 H        -0.706421        -0.222637        -0.796112
 H         1.469289         1.622514         1.336802
 H         2.083503         0.134611         2.079128
 H         4.810361         2.323793         1.382993
 H         2.056169         2.966446        -0.273413
 H         3.502520         2.364947        -1.203519
 H         1.362375         0.693122        -2.189341
 H         4.210568        -0.452676        -0.983958
