19
Iteration:  1570charge 0 multiplicity 1
 C        -0.045144        -0.447554         0.196704
 C         1.354144         0.005181         0.024646
 C         2.070749         0.672441         1.216969
 C         3.343821         1.196859         0.395979
 O         4.535853         1.474662         1.036322
 C         2.554182         2.104791        -0.561443
 C         1.968994         0.814251        -1.190124
 C         3.193073         0.007791        -0.727517
 O         2.272272        -1.084725        -0.201079
 H        -0.356841        -0.498270         1.196423
 H        -0.658185         0.447873        -0.096384
 H        -0.238715        -1.359679        -0.457511
 H         1.419310         1.580151         1.708583
 H         2.361313        -0.184042         1.944388
 H         4.298015         1.010299         1.944810
 H         2.021189         2.912097         0.041454
 H         3.275805         2.699763        -1.200761
 H         1.534524         0.819761        -2.196959
 H         4.096957        -0.159240        -1.326767
