19
Iteration:   217
 C        -0.143068        -0.307011         0.093155
 C         1.361940        -0.037805         0.065496
 C         1.969625         0.653517         1.273905
 C         3.268751         1.086926         0.483895
 O         4.577072         1.389510         1.079454
 C         2.645861         2.121290        -0.667353
 C         1.989245         0.884366        -1.132967
 C         3.200347        -0.056170        -0.628950
 O         2.339983        -1.075807        -0.216654
 H        -0.578303        -0.501399         1.080229
 H        -0.621493         0.640076        -0.305925
 H        -0.273161        -1.141983        -0.803911
 H         1.287916         1.467702         1.565815
 H         2.159355        -0.009614         2.100433
 H         4.918328         2.337017         0.947213
 H         1.975967         3.005277        -0.488359
 H         3.383949         2.317640        -1.471969
 H         1.422290         0.848101        -2.012225
 H         4.102510        -0.380961        -1.063986
