19
Iteration:   938charge 0 multiplicity 1
 C        -0.081237        -0.422788         0.174397
 C         1.365968         0.092135         0.044777
 C         1.938282         0.664576         1.301138
 C         3.277568         1.163082         0.413004
 O         4.486008         1.323288         1.016538
 C         2.716829         2.123844        -0.701992
 C         1.987473         0.784071        -1.161939
 C         3.175917         0.009861        -0.692599
 O         2.361422        -1.026476        -0.142388
 H        -0.083595        -1.055542         0.998030
 H        -0.814070         0.446065         0.169526
 H        -0.351038        -0.897573        -0.857597
 H         1.377275         1.604975         1.703296
 H         2.193734        -0.075765         2.140052
 H         4.328260         2.180125         1.606201
 H         2.209265         2.970009        -0.252009
 H         3.413933         2.433814        -1.476865
 H         1.482159         0.605916        -2.092577
 H         4.076815        -0.192217        -1.255423
