19
Iteration:  4774charge 0 multiplicity 1
 C        -0.079998        -0.371213         0.231414
 C         1.401513        -0.092459         0.046402
 C         2.142556         0.657511         1.299167
 C         3.317402         1.139179         0.367879
 O         4.515362         1.510096         1.045166
 C         2.620698         2.082610        -0.603258
 C         1.883219         0.811834        -1.059279
 C         3.109486         0.064461        -0.797772
 O         2.309990        -1.139091        -0.269393
 H        -0.512914         0.466212         0.747546
 H        -0.497504        -0.729578        -0.689315
 H        -0.131072        -1.028932         1.181999
 H         1.595493         1.280945         1.952022
 H         2.363757        -0.218095         1.968069
 H         4.597339         2.544717         1.017822
 H         1.852599         2.753655        -0.194387
 H         3.289171         2.548414        -1.369939
 H         1.499697         0.733887        -2.107702
 H         3.958910        -0.045120        -1.546068
