19
Iteration:    16charge 0 multiplicity 1
 C        -0.132705        -0.327837        -0.082104
 C         1.314607        -0.017312        -0.010270
 C         2.097656         0.875661         1.351080
 C         3.277159         1.168807         0.392874
 O         4.587314         1.419153         1.004676
 C         2.662984         2.156255        -0.610611
 C         1.994859         0.827666        -1.145563
 C         3.211989        -0.196526        -0.612274
 O         2.236959        -1.170311        -0.082083
 H        -0.276186        -0.969652         0.884692
 H        -0.613334         0.735031        -0.111866
 H        -0.606363        -0.988637        -0.793310
 H         1.612520         1.882577         1.512129
 H         2.251346         0.194721         2.241276
 H         4.371392         1.427775         1.979826
 H         2.104124         3.000012        -0.161407
 H         3.378581         2.534905        -1.357462
 H         1.360957         0.740500        -2.076632
 H         4.072127        -0.633158        -1.087591
