19
Iteration:  3082
 C        -0.033537        -0.578686         0.244317
 C         1.338174        -0.031999         0.113559
 C         1.978617         0.693939         1.249097
 C         3.267202         1.171619         0.416653
 O         4.556245         1.375230         0.966009
 C         2.610105         2.146359        -0.585346
 C         1.886389         0.938560        -1.080046
 C         3.142977         0.068478        -0.766026
 O         2.435531        -1.036770        -0.242576
 H         0.232902        -1.657124         0.532270
 H        -0.619726         0.119385         0.832661
 H        -0.554587        -0.535879        -0.846191
 H         1.377180         1.544728         1.395871
 H         2.284908         0.110364         2.064492
 H         4.479904         1.918975         1.772246
 H         2.072099         3.064378        -0.287135
 H         3.279654         2.218888        -1.451152
 H         1.328290         0.921020        -2.067673
 H         3.935317        -0.268438        -1.437360
