19
Iteration:  3766charge 0 multiplicity 1
 C        -0.066221        -0.496153         0.170819
 C         1.392112        -0.050162         0.109810
 C         2.099173         0.765930         1.221323
 C         3.290050         1.170987         0.428407
 O         4.509522         1.574415         1.069492
 C         2.600996         2.097039        -0.563280
 C         1.851999         0.812975        -1.113205
 C         3.148972        -0.026507        -0.775223
 O         2.348855        -1.097326        -0.222295
 H        -0.151201        -1.111789         1.178496
 H        -0.761819         0.359034        -0.089958
 H        -0.210290        -1.310118        -0.522261
 H         1.592419         1.634672         1.390183
 H         2.306833         0.248354         2.128156
 H         5.209344         1.208457         0.566057
 H         2.054825         2.876755         0.001533
 H         3.318799         2.606435        -1.239178
 H         1.225210         0.606449        -1.998334
 H         3.834135        -0.283789        -1.518055
