19
Iteration:   564
 C        -0.057404        -0.443942         0.211348
 C         1.317906         0.056211         0.017056
 C         2.078970         0.671777         1.281904
 C         3.243646         1.177592         0.374228
 O         4.439738         1.370720         1.177230
 C         2.746556         2.087694        -0.687271
 C         1.993694         0.868427        -1.262100
 C         3.158853        -0.026543        -0.675036
 O         2.271479        -1.049541        -0.199864
 H        -0.038192        -0.999019         1.089571
 H        -0.602778         0.462022         0.292920
 H        -0.476320        -0.891160        -0.757342
 H         1.653385         1.398151         1.849555
 H         2.461928        -0.130821         1.858431
 H         4.321925         2.327698         1.598441
 H         2.325398         3.071487        -0.534107
 H         3.566270         2.161569        -1.423054
 H         1.590958         0.894488        -2.261313
 H         3.983808        -0.380586        -1.278771
