19
Iteration:  1811
 C        -0.106566        -0.450681         0.252076
 C         1.330051        -0.012502         0.104644
 C         2.096242         0.655470         1.248974
 C         3.231505         1.162775         0.388396
 O         4.432321         1.546589         1.103376
 C         2.673742         2.117450        -0.703842
 C         1.974961         0.892520        -1.199831
 C         3.195669         0.046230        -0.690933
 O         2.335711        -1.113416        -0.246444
 H        -0.113373        -1.371199         0.924122
 H        -0.964662         0.282052         0.631534
 H        -0.407532        -0.757469        -0.822005
 H         1.528233         1.354756         1.921142
 H         2.542825        -0.109996         1.793401
 H         4.982457         0.699096         1.442679
 H         2.230513         3.117373        -0.418361
 H         3.621527         2.115823        -1.335872
 H         1.517658         0.684105        -2.090663
 H         3.979013        -0.117334        -1.360517
