19
Iteration:  4489charge 0 multiplicity 1
 C        -0.026119        -0.462895         0.283540
 C         1.365068        -0.043434         0.132935
 C         2.105077         0.738691         1.228709
 C         3.249046         1.152940         0.359272
 O         4.498026         1.392507         1.009225
 C         2.567842         2.174646        -0.565761
 C         1.885787         0.864371        -1.125591
 C         3.094640         0.090119        -0.848793
 O         2.443412        -1.088583        -0.271740
 H        -0.690033         0.195538        -0.195473
 H        -0.055306        -1.455492        -0.086487
 H        -0.279191        -0.551063         1.387364
 H         1.321128         1.520259         1.604352
 H         2.315755         0.073383         2.097481
 H         4.646025         0.723930         1.810926
 H         1.999188         2.798975         0.088042
 H         3.189662         2.548161        -1.312341
 H         1.517821         0.899899        -2.101548
 H         4.037281        -0.034206        -1.483309
