19
Iteration:   105charge 0 multiplicity 1
 C        -0.034818        -0.359378         0.250383
 C         1.343366         0.127732        -0.034309
 C         2.039906         0.814652         1.152908
 C         3.335627         1.128348         0.414726
 O         4.386808         1.471534         1.331863
 C         2.751236         2.033231        -0.694247
 C         1.977489         0.824020        -1.261267
 C         3.106007        -0.126557        -0.714332
 O         2.276806        -1.115769        -0.244780
 H        -0.010378        -1.144047         1.152999
 H        -0.684017         0.465045         0.644048
 H        -0.512640        -1.031170        -0.638876
 H         1.667908         1.781869         1.603610
 H         2.380336         0.157967         2.021802
 H         5.058452         0.761539         1.184393
 H         2.071132         2.899737        -0.491375
 H         3.605064         2.304119        -1.385811
 H         1.524372         0.960060        -2.260429
 H         4.005702        -0.396025        -1.394669
