19
Iteration:  1096
 C        -0.046431        -0.456346         0.215451
 C         1.325532         0.028875         0.022599
 C         2.058859         0.714932         1.192478
 C         3.309064         1.229608         0.421373
 O         4.451469         1.497546         1.118224
 C         2.785236         2.096391        -0.696147
 C         1.946835         0.840914        -1.093078
 C         3.125706        -0.075797        -0.711399
 O         2.296196        -1.097569        -0.239489
 H        -0.182178        -1.356567         0.962402
 H        -0.578853         0.360824         0.641193
 H        -0.599134        -0.533938        -0.640436
 H         1.460800         1.737567         1.505333
 H         2.076592         0.001815         2.000749
 H         4.361329         1.189764         2.085267
 H         2.175840         2.982352        -0.561690
 H         3.561122         2.057455        -1.498939
 H         1.651137         0.714371        -2.181857
 H         4.012085        -0.340005        -1.398194
