19
Iteration:  2274
 C        -0.025549        -0.490152         0.093825
 C         1.329593        -0.016055         0.071872
 C         2.068986         0.730859         1.259506
 C         3.294238         1.171487         0.398946
 O         4.526529         1.539471         0.938678
 C         2.600619         2.143227        -0.522652
 C         1.898047         0.882718        -1.054477
 C         3.123465        -0.031200        -0.769284
 O         2.370633        -1.141707        -0.158961
 H        -0.158804        -1.475956         0.612398
 H        -0.529201         0.187817         0.694576
 H        -0.513339        -0.508663        -0.917270
 H         1.382515         1.626423         1.548439
 H         2.286250         0.108987         2.034420
 H         4.749825         0.860880         1.724228
 H         2.073019         3.025943        -0.222951
 H         3.353291         2.436954        -1.246354
 H         1.382930         0.793550        -2.019472
 H         4.105978        -0.353822        -1.229349
