19
Iteration:  4362
 C        -0.079197        -0.588090         0.283712
 C         1.405120         0.006162         0.042355
 C         2.052788         0.821623         1.232892
 C         3.257642         1.179804         0.354852
 O         4.522253         1.291680         0.988022
 C         2.608097         2.224367        -0.551073
 C         1.858297         0.874777        -1.164204
 C         3.225424         0.067552        -0.773858
 O         2.357049        -1.103144        -0.207285
 H        -0.289601        -0.351216         1.338090
 H        -0.855544        -0.220428        -0.383574
 H         0.172950        -1.644234         0.093249
 H         1.490412         1.633146         1.519382
 H         2.199631         0.163154         2.110295
 H         4.496974         1.912838         1.677688
 H         2.075155         3.052574        -0.099908
 H         3.148086         2.725937        -1.362843
 H         1.370400         0.580002        -2.077810
 H         4.145478        -0.155845        -1.219806
