19
Iteration:   469charge 0 multiplicity 1
 C        -0.020181        -0.484850        -0.028261
 C         1.367441        -0.004648         0.093443
 C         2.047711         0.765067         1.259030
 C         3.334555         1.134462         0.392518
 O         4.608982         1.338970         1.033012
 C         2.599427         2.147163        -0.653384
 C         1.935790         0.883939        -1.113153
 C         3.107429        -0.023604        -0.614141
 O         2.235227        -1.055564        -0.108987
 H        -0.235781        -1.239123         0.694363
 H        -0.735173         0.357048         0.041171
 H        -0.175383        -0.798391        -1.089110
 H         1.420719         1.761842         1.614806
 H         2.329037         0.097220         2.105083
 H         4.556574         1.840269         1.860689
 H         2.004077         2.997417        -0.249869
 H         3.341842         2.446393        -1.437974
 H         1.535808         1.089584        -2.036991
 H         3.944961        -0.352410        -1.125838
