19
Iteration:   136
 C        -0.149696        -0.436066         0.223043
 C         1.312556         0.044407         0.034642
 C         1.937943         0.750107         1.246976
 C         3.277902         1.124854         0.369120
 O         4.412192         1.399841         1.079291
 C         2.827527         2.099414        -0.724082
 C         2.054706         0.885571        -1.173394
 C         3.202673        -0.020949        -0.616725
 O         2.337923        -1.063739        -0.209651
 H        -0.127843        -1.334920         0.948190
 H        -0.706343         0.432938         0.624846
 H        -0.783754        -0.666854        -0.657482
 H         1.510643         1.744201         1.599344
 H         2.330369         0.104569         2.117417
 H         4.508563         0.711341         1.769284
 H         2.292028         3.043330        -0.592631
 H         3.646894         2.316589        -1.429042
 H         1.600919         1.002277        -2.208265
 H         4.119206        -0.345297        -1.212402
