19
Iteration:  1124
 C        -0.049866        -0.370805         0.262896
 C         1.342108         0.032469         0.066001
 C         2.029650         0.795998         1.228316
 C         3.322575         1.103733         0.333355
 O         4.395633         1.575262         1.140050
 C         2.711840         2.059664        -0.559593
 C         1.996772         0.754346        -1.249334
 C         3.238580        -0.100301        -0.777243
 O         2.290178        -1.108682        -0.257215
 H        -0.320392        -0.946810         1.091584
 H        -0.618631         0.628476         0.373395
 H        -0.599455        -0.675078        -0.712092
 H         1.605047         1.665266         1.535992
 H         2.121348         0.033882         2.086447
 H         4.713439         0.766920         1.748275
 H         1.942230         2.718511        -0.110582
 H         3.428144         2.589145        -1.182604
 H         1.445922         0.632893        -2.194288
 H         4.167921        -0.423810        -1.228767
