19
Iteration:   195charge 0 multiplicity 1
 C        -0.138668        -0.312795        -0.065912
 C         1.284110         0.045475         0.037797
 C         2.107044         0.710840         1.365755
 C         3.227271         1.142414         0.432292
 O         4.527747         1.347519         0.994116
 C         2.704559         2.102819        -0.586762
 C         1.941523         0.772378        -1.154298
 C         3.167489         0.034441        -0.644844
 O         2.334895        -1.097773        -0.082214
 H        -0.420896        -0.859218         0.849675
 H        -0.790013         0.595610        -0.180347
 H        -0.058236        -1.025186        -1.080325
 H         1.657929         1.465096         2.023200
 H         2.424076        -0.144245         1.945448
 H         4.752352         2.220116         1.272968
 H         2.083829         2.935254        -0.176704
 H         3.477254         2.410888        -1.317695
 H         1.533859         0.464736        -2.066326
 H         3.973443        -0.258871        -1.272800
