19
Iteration:  1351charge 0 multiplicity 1
 C        -0.066500        -0.406752         0.108035
 C         1.387914         0.040004         0.093867
 C         2.078902         0.707140         1.305628
 C         3.317771         1.176591         0.372767
 O         4.532774         1.450941         1.049376
 C         2.575074         2.104234        -0.581263
 C         1.993193         0.834143        -1.219467
 C         3.109029        -0.032926        -0.690724
 O         2.300404        -1.057791        -0.171331
 H        -0.332229        -0.841720         1.119284
 H        -0.664782         0.417994        -0.434519
 H        -0.155639        -1.296601        -0.699942
 H         1.507942         1.524438         1.675510
 H         2.367290        -0.017914         2.047433
 H         4.853482         0.676503         1.417306
 H         1.744849         2.698759        -0.057028
 H         3.184952         2.736088        -1.281571
 H         1.383771         0.917528        -2.111618
 H         3.995554        -0.415662        -1.197724
