19
Iteration:  2512
 C        -0.032365        -0.470943         0.286510
 C         1.404738        -0.048152         0.104636
 C         2.072376         0.748957         1.195282
 C         3.324818         1.118147         0.410453
 O         4.482823         1.534028         1.068589
 C         2.573661         2.119968        -0.538067
 C         1.921747         0.848107        -1.106306
 C         3.161815        -0.067764        -0.879711
 O         2.350447        -1.084131        -0.315474
 H        -0.248719        -1.177922         1.133648
 H        -0.605776         0.424441         0.320068
 H        -0.349704        -0.914839        -0.660303
 H         1.513431         1.609797         1.457352
 H         2.179268         0.126635         2.192222
 H         4.530846         1.154286         1.934976
 H         2.034384         2.979816        -0.087252
 H         3.167310         2.808315        -1.072164
 H         1.372800         0.812252        -2.060234
 H         3.915658        -0.249377        -1.698520
