19
Iteration:  2986
 C        -0.048208        -0.502359         0.182502
 C         1.362542         0.017605         0.082530
 C         2.162227         0.588055         1.325048
 C         3.251651         1.166193         0.396209
 O         4.553565         1.512258         0.994450
 C         2.555497         2.163683        -0.602562
 C         1.875326         0.865258        -1.151098
 C         3.087108         0.007809        -0.723839
 O         2.348558        -1.045654        -0.264950
 H        -0.001943        -0.754723         1.208205
 H        -0.713972         0.222445        -0.220401
 H        -0.318113        -1.276782        -0.547613
 H         1.651504         1.331249         1.930883
 H         2.672745        -0.439393         1.892479
 H         4.463771         1.180363         1.982020
 H         1.997180         2.988680        -0.084569
 H         3.316922         2.634576        -1.270486
 H         1.479956         0.810770        -2.184820
 H         4.021101        -0.079208        -1.299956
