19
Iteration:  4898charge 0 multiplicity 1
 C        -0.089174        -0.352717         0.280477
 C         1.355373        -0.035586         0.081244
 C         2.155657         0.620662         1.268887
 C         3.271202         1.230890         0.398260
 O         4.572290         1.418535         0.925685
 C         2.427509         2.160107        -0.520994
 C         1.879164         0.778577        -1.123360
 C         3.161016         0.001972        -0.770489
 O         2.434378        -1.077979        -0.302627
 H        -0.744197         0.526128         0.153020
 H        -0.360831        -1.123262        -0.471060
 H        -0.147019        -0.897422         1.150100
 H         1.654845         1.290766         1.871301
 H         2.621696        -0.182627         1.809274
 H         4.312425         1.807727         1.820315
 H         1.983103         2.940944         0.023536
 H         3.058640         2.728340        -1.197561
 H         1.490779         0.593954        -2.093070
 H         4.057828        -0.229497        -1.224482
