19
Iteration:  2034charge 0 multiplicity 1
 C        -0.043591        -0.482812         0.148459
 C         1.362340         0.022306         0.057154
 C         2.074697         0.658826         1.288203
 C         3.241292         1.180044         0.435333
 O         4.525394         1.498378         0.981079
 C         2.612318         2.105117        -0.637560
 C         1.923288         0.869659        -1.134276
 C         3.114030        -0.000275        -0.717581
 O         2.347451        -1.035052        -0.182324
 H         0.111434        -1.590750         0.464607
 H        -0.751712         0.021546         0.777079
 H        -0.515188        -0.677649        -0.864875
 H         1.491153         1.392680         1.859856
 H         2.525313        -0.101374         2.012883
 H         4.436365         1.283913         2.013009
 H         2.214118         3.088446        -0.411267
 H         3.478083         2.339111        -1.304106
 H         1.506631         0.740214        -2.185345
 H         4.082162        -0.381682        -1.232509
