19
Iteration:   256
 C        -0.055940        -0.377835         0.261745
 C         1.350733         0.079977        -0.007633
 C         2.051355         0.676903         1.178925
 C         3.329948         1.110744         0.403165
 O         4.369419         1.427838         1.330066
 C         2.723305         2.080758        -0.700852
 C         1.997648         0.866688        -1.249805
 C         3.184954        -0.097112        -0.774344
 O         2.261570        -1.033034        -0.213468
 H        -0.109901        -0.809248         1.295039
 H        -0.847219         0.302970         0.091570
 H        -0.285682        -1.085918        -0.441872
 H         1.700405         1.637212         1.634383
 H         2.176995        -0.094193         2.008679
 H         5.040312         1.744184         0.676385
 H         2.142473         2.926927        -0.328886
 H         3.493915         2.515324        -1.346909
 H         1.497536         0.875425        -2.275309
 H         4.061999        -0.658715        -1.314189
