19
Iteration:  3535
 C        -0.037846        -0.520800         0.288844
 C         1.335559        -0.031034         0.134036
 C         2.082747         0.678756         1.180525
 C         3.323492         1.120442         0.340198
 O         4.477068         1.543505         1.036610
 C         2.628834         2.106455        -0.580111
 C         1.949930         0.907050        -1.141245
 C         3.089617         0.022922        -0.796184
 O         2.397771        -1.117621        -0.262320
 H        -0.164668        -1.289945         1.117151
 H        -0.656197         0.361010         0.477363
 H        -0.443847        -1.116587        -0.525737
 H         1.505367         1.651680         1.473453
 H         2.318361         0.212517         2.280598
 H         4.213803         1.496836         1.929844
 H         2.084940         2.939582        -0.111930
 H         3.319608         2.619163        -1.289641
 H         1.445457         0.855942        -2.167388
 H         3.875734        -0.198318        -1.503157
