19
Iteration:  1151charge 0 multiplicity 1
 C        -0.096556        -0.308065         0.093794
 C         1.343586         0.007248         0.019184
 C         2.042954         0.596622         1.293794
 C         3.252206         1.204227         0.406381
 O         4.529398         1.534633         1.033137
 C         2.653465         2.148401        -0.658232
 C         1.984326         0.831645        -1.189131
 C         3.192756        -0.017144        -0.648742
 O         2.303791        -1.172866        -0.113726
 H        -0.330895        -0.778726         1.212942
 H        -0.796392         0.523982         0.007173
 H        -0.360718        -1.066593        -0.613174
 H         1.327127         1.253730         1.942578
 H         2.378208        -0.234407         1.864414
 H         4.907367         0.672593         1.505187
 H         2.037424         3.043872        -0.555740
 H         3.444777         2.529152        -1.352075
 H         1.394210         0.753327        -2.139564
 H         4.153743        -0.281984        -1.195704
