19
Iteration:  3705
 C        -0.025368        -0.535926         0.255622
 C         1.391252        -0.009134         0.041574
 C         2.013735         0.770055         1.237993
 C         3.320494         1.173186         0.379477
 O         4.489026         1.417630         1.086148
 C         2.596588         2.130673        -0.694050
 C         1.911580         0.845756        -1.146388
 C         3.153949        -0.015980        -0.702971
 O         2.370475        -1.087009        -0.203086
 H         0.005443        -1.454930         0.685176
 H        -0.598489        -0.167236         1.063769
 H        -0.631248        -0.565944        -0.666353
 H         1.469574         1.775362         1.385337
 H         2.251768         0.390408         2.311455
 H         4.724311         2.358796         0.904435
 H         2.056103         2.866220        -0.089266
 H         3.186930         2.605886        -1.473845
 H         1.426189         0.775418        -2.097055
 H         3.971815        -0.431748        -1.416596
