19
Iteration:   970
 C        -0.137959        -0.382274         0.239030
 C         1.335710         0.010642        -0.022676
 C         2.080993         0.740164         1.258020
 C         3.308644         1.195838         0.443036
 O         4.504241         1.485586         1.133281
 C         2.712306         2.039157        -0.597998
 C         2.039205         0.768939        -1.200020
 C         3.158033        -0.086753        -0.770127
 O         2.291914        -1.095592        -0.283816
 H        -0.376843        -0.639933         1.234675
 H        -0.761704         0.572524         0.113492
 H        -0.387681        -1.344052        -0.397531
 H         1.420168         1.541379         1.403382
 H         2.331383         0.209670         2.221196
 H         4.344720         2.116522         1.776143
 H         2.065530         2.810406        -0.179774
 H         3.162454         2.622456        -1.350234
 H         1.475498         0.701569        -2.113517
 H         3.989296        -0.511861        -1.305423
