19
Iteration:  1245charge 0 multiplicity 1
 C        -0.037265        -0.360126         0.286708
 C         1.338346         0.015965         0.030123
 C         1.986579         0.735310         1.184644
 C         3.259953         1.168647         0.423968
 O         4.416875         1.478588         1.124751
 C         2.749163         2.045373        -0.666122
 C         1.970834         0.851739        -1.151293
 C         3.160070        -0.013927        -0.749375
 O         2.375971        -1.141219        -0.283535
 H        -0.074093        -1.134098         0.934903
 H        -0.582528         0.395595         0.900142
 H        -0.724257        -0.576073        -0.536080
 H         1.283349         1.519566         1.465770
 H         2.260198         0.120102         2.200434
 H         4.521893         0.875899         1.801405
 H         2.225442         2.966776        -0.408760
 H         3.531712         2.461501        -1.305886
 H         1.633677         0.741412        -2.253744
 H         4.065165        -0.330692        -1.376701
