19
Iteration:  1208
 C        -0.080374        -0.470972         0.078233
 C         1.335971         0.033998         0.065898
 C         2.051604         0.730828         1.244352
 C         3.333940         1.147187         0.392126
 O         4.542982         1.480476         1.037859
 C         2.688342         2.154431        -0.593781
 C         1.981982         0.844405        -1.161178
 C         3.080146        -0.080595        -0.700440
 O         2.281593        -1.020610        -0.117172
 H        -0.232820        -1.140864         0.998279
 H        -0.708615         0.430019         0.009989
 H        -0.164435        -1.129867        -0.864435
 H         1.312476         1.440440         1.729749
 H         2.517198        -0.046113         1.992529
 H         4.668650         0.872631         1.719691
 H         1.884005         2.873527        -0.243360
 H         3.464065         2.493769        -1.324890
 H         1.571159         0.812547        -2.100663
 H         3.755021        -0.513179        -1.358401
