19
Iteration:  2167charge 0 multiplicity 1
 C        -0.057864        -0.513667         0.101470
 C         1.351629        -0.003929         0.103684
 C         2.142449         0.610343         1.297468
 C         3.246716         1.199546         0.415090
 O         4.532476         1.445620         0.955702
 C         2.543128         2.215287        -0.626781
 C         1.958615         0.877236        -1.176381
 C         3.119309         0.031036        -0.692080
 O         2.336716        -1.023239        -0.155440
 H        -0.217444        -0.896781         1.102220
 H        -0.691301         0.217095        -0.294326
 H        -0.173554        -1.380951        -0.570200
 H         1.686785         1.284342         1.908714
 H         2.451119        -0.091901         2.046717
 H         4.640848         0.909486         1.865753
 H         2.024294         3.108578        -0.231860
 H         3.294810         2.544125        -1.347926
 H         1.364411         0.718380        -2.062418
 H         4.022695        -0.398537        -1.105586
