19
Iteration:    89
 C        -0.137466        -0.358674         0.186485
 C         1.344955         0.056752         0.035487
 C         2.032780         0.820395         1.217056
 C         3.376013         1.059195         0.404728
 O         4.412780         1.464672         1.257725
 C         2.737219         2.101486        -0.688198
 C         2.010730         0.777193        -1.148153
 C         3.220144        -0.090340        -0.729372
 O         2.238743        -1.086800        -0.265925
 H        -0.166557        -1.002361         1.041641
 H        -0.789216         0.516847         0.193049
 H        -0.490898        -0.951202        -0.548345
 H         1.510295         1.762125         1.363242
 H         2.033291         0.166910         2.097351
 H         5.242621         1.322417         0.897941
 H         2.234650         2.929850        -0.207653
 H         3.354031         2.494316        -1.486895
 H         1.561925         0.601443        -2.143991
 H         4.026469        -0.526042        -1.214461
