19
Iteration:  4531
 C        -0.138018        -0.601937         0.296236
 C         1.337828        -0.004724         0.105343
 C         2.127192         0.617991         1.292076
 C         3.311120         1.164810         0.412054
 O         4.477724         1.549039         0.984554
 C         2.728555         2.196242        -0.578147
 C         1.984310         0.954527        -1.196029
 C         3.098819         0.090467        -0.747804
 O         2.250453        -1.118595        -0.261135
 H        -0.956916        -0.096328        -0.164439
 H         0.030360        -1.509754        -0.264719
 H        -0.252471        -1.013485         1.335491
 H         1.648956         1.466730         1.828483
 H         2.598669         0.010030         2.002885
 H         4.828836         0.706950         1.080104
 H         2.123366         3.043847        -0.203937
 H         3.470542         2.498488        -1.299498
 H         1.508084         0.931105        -2.211829
 H         3.903961        -0.169898        -1.493246
