19
Iteration:  1329charge 0 multiplicity 1
 C        -0.152519        -0.413679         0.014851
 C         1.369804         0.014774         0.070577
 C         2.031519         0.770375         1.264136
 C         3.329921         1.084387         0.415551
 O         4.533746         1.471120         0.922025
 C         2.597824         2.134332        -0.493588
 C         1.918574         0.821669        -1.037055
 C         3.216902         0.011231        -0.723830
 O         2.346637        -1.133496        -0.126788
 H        -0.369683        -0.968107         0.977659
 H        -0.729195         0.538667        -0.283465
 H        -0.330416        -1.109151        -0.940229
 H         1.631646         1.731253         1.533555
 H         2.141739         0.126361         2.107142
 H         4.983308         0.938029         1.698337
 H         1.998555         3.002633        -0.049543
 H         3.340737         2.457283        -1.266395
 H         1.456286         0.721990        -2.003127
 H         4.006223        -0.165977        -1.433718
