19
Iteration:  2625charge 0 multiplicity 1
 C        -0.017753        -0.493682         0.258387
 C         1.359352        -0.002724         0.068886
 C         2.096281         0.597550         1.270699
 C         3.235252         1.255239         0.354647
 O         4.460249         1.437005         1.013573
 C         2.670444         2.186397        -0.656540
 C         1.927645         0.845440        -1.123639
 C         3.114254         0.088206        -0.708100
 O         2.337386        -1.057398        -0.239215
 H         0.016328        -1.415723         0.825436
 H        -0.652660         0.040121         0.875819
 H        -0.375169        -0.833070        -0.708668
 H         1.385200         1.231380         1.977085
 H         2.408284        -0.176910         1.928114
 H         4.460072         0.811028         1.721041
 H         2.277861         3.170274        -0.407150
 H         3.337191         2.394497        -1.507716
 H         1.694123         0.776287        -2.193329
 H         4.016211        -0.026890        -1.287266
