19
Iteration:  2892charge 0 multiplicity 1
 C        -0.037734        -0.528928         0.183033
 C         1.402520        -0.004972         0.106074
 C         2.128671         0.716426         1.255909
 C         3.323706         1.135720         0.370533
 O         4.488773         1.574546         1.006223
 C         2.548494         2.105081        -0.487573
 C         1.970272         0.910691        -1.142595
 C         3.130067        -0.035549        -0.832153
 O         2.294399        -1.090354        -0.234614
 H         0.081381        -1.512388         0.675199
 H        -0.795833         0.129813         0.706449
 H        -0.608753        -0.558582        -0.707387
 H         1.630692         1.703425         1.638970
 H         2.362384         0.012794         1.984158
 H         4.548075         0.885857         1.629937
 H         1.915092         2.874926        -0.002332
 H         3.259358         2.667753        -1.134973
 H         1.369834         0.659670        -2.033917
 H         4.075297        -0.431831        -1.356694
