19
Iteration:  1246
 C        -0.044235        -0.353052         0.283742
 C         1.344676         0.006149         0.029084
 C         1.987479         0.725958         1.186375
 C         3.260239         1.175093         0.423070
 O         4.418474         1.483760         1.127446
 C         2.748833         2.044621        -0.663665
 C         1.976807         0.857354        -1.149775
 C         3.162602        -0.013526        -0.765040
 O         2.366976        -1.143743        -0.273559
 H        -0.070812        -1.166272         0.937461
 H        -0.549353         0.384785         0.909597
 H        -0.712541        -0.587851        -0.492242
 H         1.282729         1.540653         1.413441
 H         2.229494         0.154673         2.176448
 H         4.526943         0.850026         1.832323
 H         2.225655         2.936405        -0.395666
 H         3.510447         2.470057        -1.296629
 H         1.638455         0.748725        -2.269816
 H         4.072998        -0.328682        -1.417486
