19
Iteration:  3641
 C        -0.068333        -0.384959         0.247416
 C         1.379826        -0.025500         0.087100
 C         2.172282         0.681916         1.277342
 C         3.270608         1.208281         0.374961
 O         4.424504         1.519187         1.060302
 C         2.558677         2.048342        -0.613363
 C         1.917009         0.817665        -1.155959
 C         3.174575        -0.037533        -0.715278
 O         2.373143        -1.107812        -0.224204
 H        -0.240541        -1.279205         1.032921
 H        -0.774028         0.468078         0.202633
 H        -0.252137        -0.858113        -0.838640
 H         1.453295         1.386278         1.787153
 H         2.540235        -0.077783         1.945817
 H         4.910354         2.218248         0.749044
 H         1.869887         2.811428        -0.171895
 H         3.250043         2.496152        -1.372424
 H         1.541277         0.693892        -2.146168
 H         4.040443        -0.387773        -1.396469
