19
Iteration:  2551charge 0 multiplicity 1
 C        -0.127768        -0.439931         0.169841
 C         1.349123        -0.006585         0.108584
 C         2.142308         0.539667         1.362242
 C         3.239679         1.121066         0.469825
 O         4.493030         1.517145         0.915436
 C         2.546430         2.163851        -0.627076
 C         1.960177         0.840098        -1.148873
 C         3.194649         0.086868        -0.720618
 O         2.391895        -1.016340        -0.250506
 H        -0.617386        -0.767496         1.062534
 H        -0.894172         0.453094        -0.083239
 H        -0.058113        -1.303907        -0.497697
 H         1.523178         1.178299         2.147477
 H         2.548217        -0.307678         1.839126
 H         4.892205         0.999440         1.753922
 H         1.929853         2.978768        -0.176876
 H         3.401850         2.452611        -1.348784
 H         1.494836         0.648386        -2.102141
 H         3.925143        -0.241986        -1.416432
