19
Iteration:  2304charge 0 multiplicity 1
 C        -0.047255        -0.541715         0.122816
 C         1.313796         0.013606         0.142240
 C         2.074894         0.726807         1.277998
 C         3.302486         1.141702         0.410799
 O         4.542364         1.489421         0.958941
 C         2.574964         2.122181        -0.559267
 C         1.938347         0.854356        -1.104482
 C         3.123406         0.039144        -0.760981
 O         2.363034        -1.052796        -0.202633
 H        -0.153360        -1.260067         0.985933
 H        -0.765123         0.294599         0.058163
 H        -0.367193        -1.012820        -0.828028
 H         1.550390         1.604747         1.618038
 H         2.230292         0.141107         2.184450
 H         4.780570         0.828396         1.591565
 H         1.983660         2.962902        -0.201918
 H         3.305876         2.544941        -1.275878
 H         1.539219         0.642681        -2.086170
 H         4.001810        -0.246498        -1.308241
