19
Iteration:  3659
 C        -0.058412        -0.447178         0.224833
 C         1.348519         0.012675         0.076099
 C         2.116242         0.566763         1.255677
 C         3.272726         1.121275         0.380267
 O         4.446939         1.573289         1.092625
 C         2.644003         2.154537        -0.699613
 C         1.957052         0.801232        -1.178329
 C         3.163460        -0.012819        -0.727960
 O         2.325098        -1.084001        -0.175627
 H        -0.032816        -1.144059         0.942856
 H        -0.581984         0.230283         0.863997
 H        -0.684179        -0.718990        -0.543091
 H         1.746146         1.345258         1.915946
 H         2.412314        -0.422590         1.885263
 H         4.446602         2.405889         0.731737
 H         2.041467         3.026061        -0.473318
 H         3.437684         2.391068        -1.376811
 H         1.405028         0.623721        -2.087302
 H         4.091017        -0.170847        -1.310876
