19
Iteration:  4188
 C        -0.022996        -0.544238         0.234794
 C         1.368496         0.027717         0.114852
 C         1.982228         0.804947         1.288167
 C         3.239605         1.166611         0.374782
 O         4.503482         1.448884         0.981683
 C         2.616671         2.136866        -0.652373
 C         1.885653         0.862059        -1.174462
 C         3.188568         0.037324        -0.697939
 O         2.389811        -1.072912        -0.197596
 H         0.051215        -1.443201         0.814709
 H        -0.560380         0.252183         0.705240
 H        -0.387100        -0.862367        -0.747271
 H         1.507498         1.693187         1.613963
 H         2.431963         0.077377         2.089484
 H         4.737351         0.465124         1.313458
 H         2.081863         2.979608        -0.261875
 H         3.311826         2.335091        -1.476580
 H         1.290661         0.615571        -2.083741
 H         4.100472        -0.260943        -1.178249
