19
Iteration:   210charge 0 multiplicity 1
 C        -0.131175        -0.331578         0.005219
 C         1.386175         0.020276         0.097888
 C         1.960269         0.624906         1.306684
 C         3.303922         1.144414         0.500856
 O         4.588965         1.360455         1.053869
 C         2.627086         2.079162        -0.683746
 C         1.986240         0.831253        -1.110067
 C         3.149230        -0.017247        -0.637655
 O         2.336288        -1.054130        -0.173619
 H        -0.547355        -0.558317         0.967163
 H        -0.629264         0.603818        -0.297343
 H        -0.495799        -0.986464        -0.702831
 H         1.385708         1.406035         1.747300
 H         2.187173        -0.150896         2.023813
 H         4.786868         2.384821         0.942210
 H         2.079899         3.007353        -0.538092
 H         3.414796         2.320369        -1.400000
 H         1.529136         0.790484        -2.160126
 H         4.066575        -0.190616        -1.216415
