19
Iteration:  1444charge 0 multiplicity 1
 C        -0.146250        -0.435678         0.090715
 C         1.297206         0.043241         0.075086
 C         2.144152         0.655692         1.322403
 C         3.277531         1.166364         0.456826
 O         4.489574         1.463205         0.990113
 C         2.626786         2.152703        -0.654760
 C         1.968729         0.817969        -1.197279
 C         3.154059        -0.009887        -0.670215
 O         2.372626        -1.052810        -0.164309
 H        -0.197964        -1.476664         0.512094
 H        -0.702421         0.264928         0.668441
 H        -0.650162        -0.473060        -0.802004
 H         1.701813         1.515159         1.909143
 H         2.473081        -0.174037         2.001614
 H         4.487952         1.100187         1.976578
 H         2.113935         3.062263        -0.511252
 H         3.440742         2.357472        -1.353253
 H         1.652339         0.555579        -2.176864
 H         3.977083        -0.224487        -1.322452
