19
Iteration:  2527charge 0 multiplicity 1
 C        -0.023076        -0.410308         0.176775
 C         1.401183        -0.044083         0.051490
 C         2.150014         0.649113         1.249197
 C         3.301646         1.158366         0.371226
 O         4.497913         1.525011         1.019416
 C         2.546120         2.140348        -0.507269
 C         1.885938         0.892916        -1.132415
 C         3.133929         0.014041        -0.765372
 O         2.357477        -1.150087        -0.260440
 H        -0.259155        -0.817364         1.186879
 H        -0.707937         0.474701         0.215267
 H        -0.221895        -1.260326        -0.505813
 H         1.450660         1.554276         1.664487
 H         2.470287        -0.031373         2.041197
 H         4.472640         1.180142         1.901779
 H         1.884071         2.829268         0.061280
 H         3.142703         2.500803        -1.402897
 H         1.306815         0.910649        -2.103926
 H         3.990018        -0.389407        -1.343994
