19
Iteration:  3879charge 0 multiplicity 1
 C         0.016726        -0.601224         0.160011
 C         1.332413         0.006881         0.207772
 C         2.030548         0.725962         1.330688
 C         3.176349         1.218551         0.425541
 O         4.519347         1.333732         0.922134
 C         2.605538         2.163167        -0.661925
 C         1.922732         0.894342        -1.142485
 C         3.145468         0.055926        -0.724503
 O         2.364021        -1.005394        -0.171336
 H         0.187978        -1.575053         0.545717
 H        -0.877768        -0.107301         0.590796
 H        -0.528609        -0.886722        -0.764453
 H         1.546270         1.423190         1.777427
 H         2.554847        -0.026370         2.047525
 H         4.924945         2.197115         1.041273
 H         2.206291         3.141320        -0.354857
 H         3.283992         2.328427        -1.495389
 H         1.565640         0.790741        -2.181767
 H         4.198349        -0.347761        -1.167056
