19
Iteration:  1328charge 0 multiplicity 1
 C        -0.154139        -0.408151         0.009696
 C         1.368066         0.009722         0.068752
 C         2.030519         0.762228         1.275845
 C         3.332027         1.090181         0.413880
 O         4.533581         1.472240         0.918453
 C         2.607548         2.133128        -0.496274
 C         1.923152         0.820764        -1.042796
 C         3.207779         0.018284        -0.717680
 O         2.349631        -1.138139        -0.126679
 H        -0.365160        -0.991330         0.971285
 H        -0.726066         0.513411        -0.261296
 H        -0.335333        -1.096204        -0.912755
 H         1.589803         1.745597         1.535233
 H         2.151498         0.142771         2.078043
 H         4.962789         0.950236         1.697188
 H         2.019953         2.978805        -0.064056
 H         3.331900         2.438236        -1.267254
 H         1.436590         0.764085        -1.976248
 H         3.983430        -0.153255        -1.414252
