19
Iteration:  3346charge 0 multiplicity 1
 C        -0.072878        -0.463115         0.155477
 C         1.343837         0.037129         0.079301
 C         2.206946         0.549317         1.339949
 C         3.293595         1.113531         0.387412
 O         4.550264         1.581614         0.984812
 C         2.517759         2.143922        -0.569758
 C         1.845323         0.856507        -1.193226
 C         3.140059         0.044258        -0.737615
 O         2.368664        -1.106690        -0.235337
 H        -0.379292        -0.838388         1.166821
 H        -0.727199         0.252460        -0.168392
 H        -0.212013        -1.423954        -0.358466
 H         1.677280         1.464408         2.007245
 H         2.540444        -0.314772         1.987409
 H         4.383589         1.381382         1.893555
 H         1.960006         3.061216        -0.344657
 H         3.311449         2.519195        -1.222954
 H         1.335669         0.933476        -2.068178
 H         4.072921        -0.254859        -1.240687
