19
Iteration:  1076charge 0 multiplicity 1
 C        -0.122811        -0.463667         0.162562
 C         1.278556         0.017878         0.110619
 C         2.098339         0.734007         1.286055
 C         3.248879         1.111839         0.413479
 O         4.476862         1.435963         1.067595
 C         2.737302         2.103079        -0.790390
 C         2.024577         0.894408        -1.248473
 C         3.130537         0.012103        -0.700368
 O         2.310597        -1.036764        -0.130972
 H         0.136032        -1.377625         0.719389
 H        -0.958408         0.009791         0.580295
 H        -0.471238        -0.730034        -0.819018
 H         1.490658         1.638965         1.820438
 H         2.366443        -0.126703         2.011195
 H         4.454912         1.384093         1.974436
 H         2.273815         2.947306        -0.188239
 H         3.654761         2.369485        -1.415817
 H         1.556839         0.744555        -2.230662
 H         4.107142        -0.404079        -1.053446
