19
Iteration:  3531charge 0 multiplicity 1
 C        -0.057153        -0.498683         0.324364
 C         1.373692        -0.043875         0.110504
 C         2.081533         0.663037         1.205489
 C         3.294815         1.140733         0.340007
 O         4.474621         1.534808         1.034363
 C         2.647172         2.129824        -0.603757
 C         1.960993         0.871095        -1.137670
 C         3.076151         0.012617        -0.793753
 O         2.396657        -1.090815        -0.262423
 H        -0.133914        -1.415515         1.012490
 H        -0.688527         0.397375         0.422205
 H        -0.497560        -1.040685        -0.632737
 H         1.520830         1.543503         1.536131
 H         2.370741         0.166242         2.028953
 H         4.218411         1.529017         2.020391
 H         1.999331         2.923957        -0.142658
 H         3.330031         2.655297        -1.297457
 H         1.403458         0.759110        -1.999213
 H         3.974255        -0.166106        -1.458089
