19
Iteration:  4024charge 0 multiplicity 1
 C        -0.074689        -0.615200         0.240831
 C         1.305901         0.024637         0.101959
 C         2.073639         0.709908         1.299218
 C         3.253201         1.240333         0.447422
 O         4.503209         1.494346         0.988100
 C         2.650834         2.125815        -0.681443
 C         1.903968         0.915540        -1.183739
 C         3.149369         0.045106        -0.722205
 O         2.360178        -1.067254        -0.148056
 H        -0.327613        -1.271245         1.112202
 H        -0.834428         0.110885         0.022488
 H        -0.076364        -1.320589        -0.672383
 H         1.579649         1.475437         1.802646
 H         2.333401        -0.201017         1.959355
 H         5.007405         0.727319         0.902090
 H         2.224370         3.094893        -0.464898
 H         3.451137         2.288774        -1.427642
 H         1.527712         0.898824        -2.212807
 H         4.107143        -0.225125        -1.289607
