19
Iteration:   566
 C        -0.054020        -0.448731         0.207874
 C         1.337360         0.060121         0.010724
 C         2.064379         0.692587         1.275567
 C         3.237849         1.179027         0.372114
 O         4.447425         1.373856         1.169978
 C         2.759837         2.076958        -0.675729
 C         1.984685         0.870802        -1.253149
 C         3.146095        -0.018958        -0.670153
 O         2.272772        -1.058612        -0.201764
 H        -0.070364        -0.984554         1.117425
 H        -0.631507         0.482502         0.275527
 H        -0.458851        -0.926620        -0.763448
 H         1.589487         1.352910         1.870281
 H         2.496965        -0.131586         1.802253
 H         4.369046         2.272589         1.622936
 H         2.290865         3.064702        -0.480379
 H         3.537674         2.104897        -1.461656
 H         1.644604         0.872760        -2.226167
 H         3.947838        -0.344925        -1.261977
