19
Iteration:  4001
 C         0.006605        -0.517175         0.173297
 C         1.322131         0.000216         0.113163
 C         2.079210         0.762845         1.248948
 C         3.308357         1.139328         0.402626
 O         4.465470         1.597496         0.978554
 C         2.620079         2.117783        -0.618424
 C         1.944473         0.822416        -1.094155
 C         3.129216        -0.065011        -0.716788
 O         2.312429        -1.077854        -0.207201
 H         0.005002        -1.425397         0.780848
 H        -0.681118         0.259422         0.583191
 H        -0.450243        -0.918472        -0.829333
 H         1.566483         1.635671         1.571865
 H         2.347201        -0.050406         2.105692
 H         5.130027         0.865784         1.371328
 H         2.006559         2.849583        -0.099297
 H         3.303503         2.631192        -1.311898
 H         1.301467         0.781811        -1.997452
 H         4.058732        -0.306859        -1.432095
