19
Iteration:  2291charge 0 multiplicity 1
 C        -0.066779        -0.493999         0.092851
 C         1.437938        -0.021477         0.090701
 C         1.995553         0.783925         1.270127
 C         3.336594         1.083952         0.380160
 O         4.564015         1.523795         0.952440
 C         2.588972         2.112668        -0.553681
 C         1.849555         0.866884        -1.099105
 C         3.161538        -0.023638        -0.685549
 O         2.368624        -1.067923        -0.202198
 H        -0.271415        -1.353045         0.744777
 H        -0.838191         0.266612         0.623780
 H        -0.068934        -0.917795        -0.904615
 H         1.475756         1.693279         1.429606
 H         2.128764         0.129200         2.312495
 H         4.846101         0.854088         1.726270
 H         1.906402         2.713294         0.115606
 H         3.186965         2.632220        -1.366369
 H         1.190252         0.976113        -1.993568
 H         3.847137        -0.230336        -1.453169
