19
Iteration:  1927
 C        -0.039104        -0.447146         0.225308
 C         1.385847         0.033968         0.052139
 C         2.087779         0.646856         1.224788
 C         3.332106         1.131929         0.434684
 O         4.506838         1.605708         1.081070
 C         2.570253         2.194396        -0.592869
 C         1.960017         0.827414        -1.149154
 C         3.147014        -0.076094        -0.741282
 O         2.305595        -1.130821        -0.288381
 H        -0.346209        -0.655937         1.198900
 H        -0.750923         0.286674        -0.054358
 H        -0.196733        -1.221819        -0.538053
 H         1.491161         1.570160         1.462788
 H         2.229843        -0.049566         2.147865
 H         4.828832         0.835950         1.758069
 H         1.842464         2.742431        -0.031512
 H         3.207496         2.650233        -1.302506
 H         1.413331         0.691852        -2.144489
 H         3.916940        -0.424013        -1.436491
