19
Iteration:  3755charge 0 multiplicity 1
 C         0.010164        -0.562103         0.174065
 C         1.393424        -0.005817         0.125339
 C         2.040883         0.800171         1.259761
 C         3.299349         1.171663         0.372322
 O         4.498433         1.466905         1.049202
 C         2.551036         2.113277        -0.620996
 C         1.882126         0.868741        -1.082437
 C         3.144279        -0.007404        -0.735384
 O         2.367009        -1.087546        -0.198087
 H        -0.427066        -1.195551         1.070135
 H        -0.796753         0.267631         0.187287
 H        -0.188808        -1.020379        -0.778840
 H         1.496586         1.557319         1.677802
 H         2.384236         0.141728         2.037079
 H         5.175374         1.426852         0.419516
 H         1.908164         2.974935        -0.385278
 H         3.327276         2.405038        -1.368369
 H         1.314593         0.881056        -2.031041
 H         4.062688        -0.297137        -1.160894
