19
Iteration:  3183charge 0 multiplicity 1
 C        -0.019114        -0.408432         0.204185
 C         1.390586        -0.071659         0.113492
 C         2.125853         0.671854         1.300992
 C         3.291148         1.148263         0.346844
 O         4.559831         1.494611         1.009770
 C         2.458700         2.123508        -0.525059
 C         1.890573         0.855733        -1.157619
 C         3.131253         0.008750        -0.782733
 O         2.377169        -1.120459        -0.300562
 H        -0.311813        -0.847648         1.243927
 H        -0.501393         0.559861         0.088958
 H        -0.148240        -1.335164        -0.481511
 H         1.537695         1.363432         1.732229
 H         2.317436        -0.179015         1.981368
 H         4.324889         2.008912         1.901512
 H         1.873024         2.897946        -0.015612
 H         3.134171         2.634903        -1.209208
 H         1.444113         0.932685        -2.097706
 H         4.073347        -0.209872        -1.312576
