19
Iteration:  3446charge 0 multiplicity 1
 C        -0.025858        -0.583495         0.158973
 C         1.368146         0.033394         0.124492
 C         2.033165         0.669081         1.318809
 C         3.264007         1.227429         0.366000
 O         4.565606         1.423563         0.967180
 C         2.580279         2.130068        -0.622938
 C         1.899037         0.832234        -1.118583
 C         3.154415         0.066076        -0.704767
 O         2.322262        -1.036773        -0.231855
 H        -0.048996        -1.634878         0.551453
 H        -0.635643        -0.134155         0.859820
 H        -0.323393        -0.611341        -0.906006
 H         1.517687         1.577166         1.913910
 H         2.440109        -0.110346         2.112468
 H         4.582799         2.131134         1.557030
 H         2.164420         3.057844        -0.191244
 H         3.358951         2.371142        -1.378208
 H         1.375627         0.594260        -2.015815
 H         4.041567        -0.172690        -1.347379
