19
Iteration:   574charge 0 multiplicity 1
 C        -0.056130        -0.416365         0.177307
 C         1.373701         0.047215         0.012805
 C         2.014469         0.758104         1.201376
 C         3.261545         1.163934         0.453743
 O         4.474631         1.371816         1.107371
 C         2.786558         2.076074        -0.683000
 C         1.961361         0.869714        -1.150437
 C         3.100373        -0.002727        -0.675179
 O         2.292470        -1.090998        -0.216475
 H        -0.244539        -0.977719         1.062676
 H        -0.767778         0.361168         0.263770
 H        -0.326848        -1.205406        -0.601583
 H         1.370386         1.353486         1.849835
 H         2.409123        -0.075191         1.773003
 H         4.472850         2.176874         1.775401
 H         2.263681         2.938029        -0.324980
 H         3.520107         2.270349        -1.475794
 H         1.655299         0.696984        -2.197158
 H         4.027743        -0.232111        -1.229679
