19
Iteration:  4149
 C        -0.071760        -0.424770         0.219497
 C         1.372990        -0.036530         0.053048
 C         2.123319         0.699966         1.268665
 C         3.315501         1.153293         0.337132
 O         4.505172         1.503753         0.985408
 C         2.561819         2.137267        -0.577665
 C         1.895576         0.814921        -1.158531
 C         3.152654        -0.043130        -0.718550
 O         2.411918        -1.094243        -0.217252
 H        -0.438085        -0.613752         1.310002
 H        -0.869018         0.353917        -0.064335
 H        -0.282128        -1.334761        -0.443373
 H         1.469995         1.590718         1.670497
 H         2.424332         0.029140         2.027078
 H         4.468022         1.408798         1.930935
 H         2.030802         2.892160         0.079368
 H         3.004095         2.780635        -1.355556
 H         1.226265         0.835673        -2.076453
 H         4.058560        -0.355991        -1.270830
