19
Iteration:  4189
 C        -0.027929        -0.551994         0.223378
 C         1.364895         0.030967         0.122464
 C         1.980169         0.813788         1.287149
 C         3.238356         1.166210         0.370089
 O         4.506075         1.453452         0.986131
 C         2.617450         2.137630        -0.648670
 C         1.888904         0.863373        -1.159777
 C         3.197543         0.031163        -0.712430
 O         2.385781        -1.083241        -0.197795
 H         0.041814        -1.459485         0.824893
 H        -0.540757         0.225766         0.752077
 H        -0.376315        -0.842867        -0.701919
 H         1.512742         1.733509         1.606053
 H         2.407643         0.076780         2.047910
 H         4.735940         0.492572         1.280828
 H         2.096695         3.004511        -0.281575
 H         3.331531         2.347419        -1.455964
 H         1.293143         0.632034        -2.107090
 H         4.071880        -0.265386        -1.176573
