19
Iteration:    19charge 0 multiplicity 1
 C        -0.140430        -0.316090        -0.086896
 C         1.319834        -0.026800         0.008709
 C         2.105671         0.890510         1.350387
 C         3.287001         1.163424         0.394185
 O         4.596489         1.408635         1.002733
 C         2.654922         2.148735        -0.587245
 C         1.995641         0.835662        -1.155818
 C         3.195471        -0.188109        -0.603173
 O         2.234043        -1.177283        -0.079170
 H        -0.330022        -0.924400         0.794623
 H        -0.596849         0.651094        -0.160281
 H        -0.588857        -1.045868        -0.884241
 H         1.585911         1.829762         1.532528
 H         2.251076         0.198019         2.186422
 H         4.439885         1.594499         1.895781
 H         2.025104         2.997905        -0.191206
 H         3.320696         2.559529        -1.403731
 H         1.408720         0.725724        -2.076967
 H         4.140727        -0.630244        -1.119760
