19
Iteration:  1666
 C        -0.032612        -0.448286         0.260725
 C         1.385916         0.051059        -0.014831
 C         2.037435         0.613963         1.276600
 C         3.227656         1.172778         0.418197
 O         4.420856         1.487799         1.064906
 C         2.692375         2.113921        -0.712420
 C         2.014530         0.898400        -1.190485
 C         3.163607         0.057110        -0.644281
 O         2.312054        -1.089147        -0.221371
 H        -0.101476        -1.417261         0.865467
 H        -0.561350         0.106149         1.082036
 H        -0.663838        -0.669420        -0.727682
 H         1.412910         1.425804         1.823035
 H         2.350353        -0.136417         1.908120
 H         4.604616         0.521910         1.319156
 H         2.136810         3.090339        -0.530497
 H         3.555721         2.280841        -1.452638
 H         1.449395         0.803252        -2.192248
 H         4.179204        -0.128202        -1.125386
