19
Iteration:  3443charge 0 multiplicity 1
 C        -0.003186        -0.582866         0.166852
 C         1.347240         0.020820         0.117928
 C         2.055324         0.666960         1.349230
 C         3.243064         1.241658         0.361657
 O         4.560900         1.395033         0.967764
 C         2.580552         2.134072        -0.628118
 C         1.925028         0.839788        -1.117048
 C         3.157407         0.050591        -0.710649
 O         2.322917        -1.015514        -0.229890
 H        -0.029892        -1.640082         0.528319
 H        -0.750812        -0.088591         0.859025
 H        -0.395127        -0.738725        -0.904522
 H         1.511186         1.475786         1.946653
 H         2.430547        -0.018795         2.025605
 H         4.496384         2.208170         1.542500
 H         2.117660         3.116778        -0.327614
 H         3.322464         2.343463        -1.427084
 H         1.396411         0.717012        -2.016045
 H         4.054477        -0.146631        -1.324167
