19
Iteration:  4594charge 0 multiplicity 1
 C        -0.086943        -0.338201         0.220843
 C         1.362831        -0.033347         0.113100
 C         2.173553         0.631551         1.345746
 C         3.275240         1.205525         0.313089
 O         4.504740         1.466269         0.960047
 C         2.486737         2.093706        -0.578720
 C         1.905256         0.855757        -1.153572
 C         3.195050         0.002482        -0.742451
 O         2.448139        -1.106017        -0.246281
 H        -0.659749         0.464845         0.876528
 H        -0.562327        -0.302054        -0.812771
 H        -0.305085        -1.329813         0.666536
 H         1.490712         1.220814         1.948377
 H         2.589154        -0.225286         1.895135
 H         4.472670         1.308244         1.881082
 H         1.717118         2.782561        -0.100214
 H         2.863399         2.787571        -1.389517
 H         1.312089         0.737754        -2.193246
 H         4.064056        -0.463920        -1.226563
