19
Iteration:  4278
 C        -0.098563        -0.315440         0.173805
 C         1.388598        -0.015447         0.069798
 C         2.094809         0.677004         1.216800
 C         3.286808         1.137414         0.397940
 O         4.499120         1.542753         0.946141
 C         2.478072         2.064539        -0.565912
 C         1.911633         0.817004        -1.084423
 C         3.211181        -0.030523        -0.736775
 O         2.464694        -1.141096        -0.204127
 H        -0.199236        -1.143535         0.963606
 H        -0.507125         0.611194         0.651180
 H        -0.727947        -0.654732        -0.599717
 H         1.514308         1.637587         1.542929
 H         2.298752         0.031431         2.112493
 H         4.511435         1.314972         1.943590
 H         1.726426         2.666825        -0.056292
 H         3.132044         2.467756        -1.357421
 H         1.497340         0.645935        -2.173470
 H         4.029377        -0.265853        -1.372253
