19
Iteration:  2794charge 0 multiplicity 1
 C        -0.086667        -0.566895         0.239523
 C         1.336975        -0.050772         0.163505
 C         2.083724         0.684799         1.297073
 C         3.287879         1.129732         0.358200
 O         4.521057         1.502385         1.011709
 C         2.661160         2.179506        -0.581206
 C         1.895294         0.913433        -1.144332
 C         3.111956         0.068324        -0.753800
 O         2.401341        -1.097341        -0.322232
 H        -0.262125        -0.896186         1.239605
 H        -0.806977         0.237506         0.058174
 H        -0.277865        -1.323417        -0.483223
 H         1.321747         1.560628         1.683936
 H         2.176029        -0.033965         2.189947
 H         4.591961         0.912850         1.759329
 H         2.137330         3.090255        -0.337490
 H         3.436106         2.582014        -1.238938
 H         1.441550         1.012401        -2.167053
 H         3.963148        -0.165178        -1.499457
