19
Iteration:  2303
 C        -0.045062        -0.540394         0.122748
 C         1.313504         0.011497         0.139063
 C         2.072567         0.732386         1.279557
 C         3.312592         1.130322         0.402324
 O         4.544122         1.493803         0.957393
 C         2.572270         2.113847        -0.558048
 C         1.933520         0.858998        -1.098549
 C         3.120397         0.035554        -0.757325
 O         2.366777        -1.047464        -0.204336
 H        -0.153322        -1.265905         0.955869
 H        -0.800466         0.316916         0.073640
 H        -0.344659        -0.998501        -0.833238
 H         1.510832         1.598259         1.563839
 H         2.224039         0.131600         2.247703
 H         4.798274         0.805656         1.629710
 H         1.958413         2.959838        -0.203842
 H         3.304820         2.574804        -1.267121
 H         1.543481         0.634994        -2.085391
 H         3.987521        -0.246597        -1.299363
