19
Iteration:  4289charge 0 multiplicity 1
 C        -0.081454        -0.330224         0.184571
 C         1.358557        -0.036138         0.088643
 C         2.071253         0.666179         1.256691
 C         3.313726         1.146109         0.310796
 O         4.554810         1.539232         0.993234
 C         2.497472         2.101526        -0.555643
 C         1.928065         0.710729        -1.141000
 C         3.147317         0.003251        -0.752823
 O         2.423522        -1.121215        -0.195220
 H        -0.112947        -0.981985         1.134280
 H        -0.743360         0.585874         0.369562
 H        -0.295732        -0.819939        -0.708573
 H         1.445533         1.568916         1.715736
 H         2.334890        -0.069603         2.063811
 H         4.440913         1.469905         1.900746
 H         1.961875         2.928569        -0.063846
 H         3.158751         2.797215        -1.121098
 H         1.321044         0.605435        -2.180381
 H         3.982032        -0.161195        -1.391227
