19
Iteration:  4005
 C        -0.002521        -0.520775         0.135224
 C         1.340506        -0.011494         0.110169
 C         2.087621         0.732327         1.283883
 C         3.279034         1.130139         0.379547
 O         4.488019         1.588657         0.993243
 C         2.643585         2.136670        -0.618753
 C         1.944872         0.816999        -1.124026
 C         3.105840        -0.029448        -0.712797
 O         2.302924        -1.062165        -0.193434
 H         0.009286        -1.333169         0.959892
 H        -0.718838         0.106518         0.645164
 H        -0.348397        -1.024430        -0.741636
 H         1.515559         1.596875         1.628579
 H         2.368160         0.119202         2.037520
 H         5.069611         0.917871         1.220263
 H         2.019316         2.921666        -0.160761
 H         3.399202         2.595870        -1.278977
 H         1.336055         0.652123        -2.003806
 H         3.863303        -0.267610        -1.354683
