19
Iteration:  1229charge 0 multiplicity 1
 C        -0.117153        -0.411688         0.231600
 C         1.345160         0.068674         0.057128
 C         2.060587         0.740657         1.269166
 C         3.221843         1.133646         0.420461
 O         4.437257         1.448639         1.074520
 C         2.713722         2.117198        -0.706111
 C         1.986631         0.836159        -1.208560
 C         3.200128         0.008444        -0.636728
 O         2.337413        -1.103338        -0.273847
 H        -0.143365        -1.410114         0.978670
 H        -0.681686         0.471113         0.573294
 H        -0.412948        -0.931539        -0.762562
 H         1.719507         1.673466         1.825864
 H         2.220557        -0.185518         1.848860
 H         4.577250         0.808089         1.835675
 H         2.259080         3.113706        -0.386307
 H         3.512335         2.231071        -1.501722
 H         1.442601         0.646912        -2.067170
 H         4.135450        -0.100183        -1.093494
