19
Iteration:  3342
 C        -0.052472        -0.444183         0.173312
 C         1.359729         0.001257         0.099681
 C         2.172978         0.581615         1.341733
 C         3.314392         1.119547         0.393774
 O         4.551537         1.596799         0.981765
 C         2.529853         2.127161        -0.551485
 C         1.858712         0.875908        -1.168508
 C         3.111380         0.021722        -0.782686
 O         2.371799        -1.111639        -0.242991
 H        -0.386449        -0.920781         1.065390
 H        -0.895017         0.243864        -0.301252
 H        -0.278221        -1.331125        -0.436060
 H         1.690869         1.407363         1.949835
 H         2.488240        -0.209859         1.952379
 H         4.471627         1.354489         1.992953
 H         1.929994         3.015705        -0.187578
 H         3.244016         2.560191        -1.299055
 H         1.329294         0.747344        -2.227575
 H         4.061009        -0.267105        -1.215146
