19
Iteration:  3699charge 0 multiplicity 1
 C        -0.038600        -0.519999         0.272675
 C         1.387757        -0.029237         0.065289
 C         2.027359         0.810720         1.230398
 C         3.314415         1.111864         0.358657
 O         4.497280         1.465138         1.099147
 C         2.631159         2.153488        -0.659541
 C         1.915825         0.826174        -1.108549
 C         3.162816        -0.005349        -0.745726
 O         2.327720        -1.124994        -0.235098
 H         0.165150        -1.691160         0.585661
 H        -0.516749         0.087873         1.127420
 H        -0.605866        -0.582353        -0.708717
 H         1.332012         1.646750         1.305483
 H         2.190035         0.403509         2.170479
 H         4.714605         2.478477         0.962187
 H         1.909459         2.896217        -0.237266
 H         3.368661         2.665418        -1.342081
 H         1.441728         0.518637        -2.092953
 H         3.952245        -0.291567        -1.361190
