19
Iteration:  1307
 C        -0.088958        -0.437832         0.071518
 C         1.359339        -0.017465         0.154932
 C         2.012817         0.645784         1.311710
 C         3.217707         1.172179         0.472503
 O         4.561586         1.505706         0.953245
 C         2.705931         2.125662        -0.663975
 C         1.909967         0.914123        -1.150826
 C         3.127226        -0.073900        -0.674688
 O         2.333239        -1.067376        -0.186240
 H        -0.404099        -1.216185         0.859365
 H        -0.573084         0.604330         0.120099
 H        -0.305365        -0.691637        -1.064360
 H         1.472478         1.397940         1.851772
 H         2.331659        -0.105160         2.017325
 H         4.773019         1.034061         1.702199
 H         2.165072         3.084752        -0.340162
 H         3.627108         2.361125        -1.270427
 H         1.564576         0.695649        -2.116095
 H         4.058830        -0.363929        -1.096858
