19
Iteration:  1476
 C        -0.044020        -0.440573         0.051908
 C         1.388273        -0.015903         0.081960
 C         1.996559         0.749642         1.271306
 C         3.301222         1.091550         0.427887
 O         4.548607         1.497597         0.944620
 C         2.579299         2.154236        -0.517449
 C         1.923584         0.861617        -1.110259
 C         3.171390        -0.043489        -0.690501
 O         2.338058        -1.125541        -0.175900
 H        -0.187968        -1.387908         0.700605
 H        -0.468029         0.422795         0.612462
 H        -0.365734        -0.434837        -0.953838
 H         1.498033         1.647719         1.298967
 H         2.009448         0.308685         2.284822
 H         4.709600         1.053487         1.719369
 H         2.104941         3.091696        -0.220443
 H         3.253062         2.448683        -1.307012
 H         1.479405         0.745127        -2.071500
 H         3.945707        -0.382456        -1.352488
