19
Iteration:    53charge 0 multiplicity 1
 C        -0.124330        -0.281812        -0.040771
 C         1.364512         0.090348         0.027273
 C         1.969480         0.681809         1.383632
 C         3.271320         1.086112         0.438339
 O         4.512551         1.338615         1.005215
 C         2.692018         2.104486        -0.662740
 C         1.973113         0.796206        -1.159574
 C         3.200469        -0.063144        -0.626867
 O         2.338296        -1.045372        -0.059524
 H        -0.392764        -0.599618         0.920852
 H        -0.805998         0.522830        -0.082762
 H        -0.278905        -0.965558        -0.972793
 H         1.510954         1.482035         1.943458
 H         2.107475        -0.117722         2.100460
 H         4.750258         2.218510         0.853523
 H         2.149702         3.064143        -0.452438
 H         3.515973         2.258110        -1.406062
 H         1.432360         0.648419        -2.083278
 H         4.197184        -0.425455        -1.065446
