19
Iteration:  1702
 C        -0.103592        -0.485268         0.202352
 C         1.382391        -0.035931         0.064131
 C         2.109704         0.760861         1.238531
 C         3.379058         1.092750         0.362082
 O         4.473004         1.537736         1.082251
 C         2.639070         2.051944        -0.532865
 C         1.925889         0.916420        -1.174444
 C         3.164969        -0.024134        -0.819046
 O         2.299145        -1.102719        -0.210524
 H        -0.106383        -1.273962         0.924694
 H        -0.780795         0.432528         0.180923
 H        -0.395883        -0.939485        -0.778453
 H         1.618325         1.820567         1.421688
 H         2.120133         0.299823         2.297696
 H         4.483077         0.997118         1.947230
 H         2.022752         2.863070        -0.024105
 H         3.225252         2.549613        -1.363723
 H         1.437260         0.987950        -2.072161
 H         4.013498        -0.265136        -1.383173
