19
Iteration:  4818
 C         0.016595        -0.618717         0.294850
 C         1.369581         0.021864         0.062194
 C         2.087555         0.764167         1.191868
 C         3.283045         1.189664         0.420895
 O         4.468146         1.343289         1.087407
 C         2.578474         2.194916        -0.637904
 C         1.877815         0.876167        -1.182222
 C         3.146724         0.025395        -0.768637
 O         2.339586        -0.994024        -0.211736
 H        -0.486704         0.079978         0.932135
 H        -0.465602        -0.665463        -0.651843
 H        -0.061485        -1.494927         0.994389
 H         1.733393         1.575611         1.790147
 H         2.305161         0.034939         2.022570
 H         5.145720         1.272633         0.332381
 H         2.015679         2.971277        -0.100964
 H         3.347986         2.548607        -1.360250
 H         1.115218         0.645878        -1.986032
 H         4.063899        -0.242188        -1.364798
