19
Iteration:  3203
 C        -0.069921        -0.493946         0.216029
 C         1.355258         0.041128         0.080119
 C         2.169452         0.561655         1.321611
 C         3.269233         1.192086         0.412136
 O         4.467876         1.474264         0.961385
 C         2.573102         2.177254        -0.589569
 C         1.942023         0.843993        -1.156082
 C         3.179969         0.036239        -0.759182
 O         2.323708        -1.037497        -0.223804
 H        -0.018192        -1.289517         1.074438
 H        -0.788697         0.342675         0.233345
 H        -0.206772        -1.310017        -0.675463
 H         1.655185         1.383769         1.915305
 H         2.616513        -0.242101         1.798664
 H         4.576752         1.640663         1.897052
 H         1.867236         2.996356        -0.256701
 H         3.226397         2.557467        -1.392958
 H         1.365679         0.586696        -2.034587
 H         3.968560        -0.195991        -1.475530
