19
Iteration:  1269
 C        -0.067297        -0.418158         0.274199
 C         1.328405         0.042657         0.018565
 C         2.071156         0.782214         1.134131
 C         3.366548         1.066851         0.376937
 O         4.434785         1.560004         1.184653
 C         2.670224         2.144838        -0.588115
 C         1.991710         0.824058        -1.220360
 C         3.160859        -0.132467        -0.774514
 O         2.303202        -1.114535        -0.243594
 H        -0.297506        -1.286360         0.847482
 H        -0.589482         0.342650         0.794361
 H        -0.555687        -0.502969        -0.624844
 H         1.564114         1.650245         1.588064
 H         2.219930         0.033376         1.961230
 H         4.680742         0.929760         1.899309
 H         2.096177         2.942965        -0.202133
 H         3.350859         2.659564        -1.245752
 H         1.396450         0.803847        -2.231703
 H         4.026536        -0.664313        -1.307223
