19
Iteration:  3124charge 0 multiplicity 1
 C         0.006335        -0.571269         0.179978
 C         1.381158         0.025561         0.107502
 C         2.141142         0.615177         1.270186
 C         3.268561         1.193865         0.402510
 O         4.509313         1.386171         0.977123
 C         2.542736         2.172951        -0.596137
 C         1.941188         0.887797        -1.095683
 C         3.122331         0.029195        -0.710361
 O         2.303721        -1.011285        -0.243760
 H         0.203406        -1.185607         1.126504
 H        -0.918116         0.125310         0.226708
 H        -0.328173        -1.093186        -0.796577
 H         1.582759         1.423986         1.916341
 H         2.381002        -0.187089         1.901938
 H         4.626918         2.217386         1.318013
 H         1.796207         2.956097        -0.265825
 H         3.362392         2.608038        -1.251148
 H         1.390658         0.796261        -2.106783
 H         4.011735        -0.147816        -1.311086
