19
Iteration:  1418
 C         0.024653        -0.421071         0.215024
 C         1.360555         0.060289         0.074011
 C         2.070026         0.723253         1.183414
 C         3.356107         1.162102         0.432077
 O         4.450517         1.529791         1.091775
 C         2.678766         2.113683        -0.600479
 C         1.962968         0.843795        -1.180211
 C         3.146961        -0.132120        -0.739268
 O         2.244414        -1.088375        -0.254735
 H        -0.054307        -1.363584         0.796056
 H        -0.724035         0.418048         0.654802
 H        -0.549148        -0.803234        -0.800306
 H         1.422024         1.475723         1.534380
 H         2.413412         0.039218         1.991505
 H         4.491325         1.051521         2.023998
 H         1.939768         2.771642         0.002437
 H         3.247413         2.612763        -1.457121
 H         1.435177         0.723714        -2.178876
 H         4.019338        -0.428599        -1.387917
