19
Iteration:   848
 C        -0.096215        -0.351311         0.252208
 C         1.319834         0.065610         0.059904
 C         2.075869         0.689498         1.156826
 C         3.246676         1.184069         0.393036
 O         4.461711         1.432233         1.115047
 C         2.663742         2.085875        -0.705027
 C         2.100713         0.793523        -1.135992
 C         3.191769        -0.078604        -0.682175
 O         2.290010        -1.086075        -0.223880
 H        -0.257497        -1.180460         1.064004
 H        -0.874522         0.397822         0.463701
 H        -0.349992        -0.820671        -0.791315
 H         1.440834         1.498170         1.744049
 H         2.343697        -0.241586         1.827246
 H         4.390994         2.059457         1.949448
 H         2.070410         2.988516        -0.617320
 H         3.396804         2.418381        -1.419648
 H         1.542770         0.739171        -2.130082
 H         4.199614        -0.311014        -1.224691
