19
Iteration:  3869charge 0 multiplicity 1
 C        -0.032155        -0.601785         0.176220
 C         1.367010         0.033241         0.128377
 C         2.089334         0.669067         1.306951
 C         3.246408         1.234487         0.384037
 O         4.524982         1.326294         0.958489
 C         2.603772         2.175689        -0.671622
 C         1.879116         0.893039        -1.149902
 C         3.114852         0.032381        -0.703512
 O         2.376680        -1.016874        -0.159899
 H         0.051309        -1.404691         0.862712
 H        -0.734094         0.114260         0.604404
 H        -0.130540        -0.923659        -0.911157
 H         1.490563         1.411618         1.706622
 H         2.279638         0.007133         2.207298
 H         4.679160         2.301622         1.180311
 H         1.946346         3.005896        -0.369892
 H         3.351866         2.524243        -1.389329
 H         1.164585         0.700715        -1.980668
 H         4.213185        -0.171733        -1.145573
