19
Iteration:  4576charge 0 multiplicity 1
 C        -0.063616        -0.366008         0.172983
 C         1.449105        -0.052854         0.123847
 C         2.159712         0.672489         1.245070
 C         3.282307         1.139546         0.402566
 O         4.518084         1.494855         0.943128
 C         2.443040         2.198327        -0.540449
 C         1.906485         0.807683        -1.075833
 C         3.154992         0.002217        -0.819671
 O         2.383134        -1.158668        -0.214682
 H        -0.514199         0.523970         0.456720
 H        -0.564313        -0.610672        -0.735320
 H        -0.290875        -1.237520         0.887560
 H         1.679053         1.625086         1.595325
 H         2.340033         0.017100         2.079118
 H         4.597517         1.061435         1.765485
 H         1.763135         2.853510         0.011183
 H         3.169661         2.720186        -1.108148
 H         1.399816         0.722883        -1.968724
 H         3.980313        -0.121730        -1.557413
