19
Iteration:  4778
 C        -0.088356        -0.392917         0.279419
 C         1.422161        -0.097864         0.044497
 C         2.139147         0.673759         1.271435
 C         3.282767         1.128553         0.369709
 O         4.509199         1.486652         1.055538
 C         2.596182         2.085860        -0.616343
 C         1.897557         0.809819        -1.065348
 C         3.127974         0.053357        -0.821583
 O         2.340767        -1.104353        -0.271293
 H        -0.540537         0.590222         0.794846
 H        -0.558126        -0.676356        -0.734559
 H        -0.229275        -1.142776         1.095990
 H         1.572881         1.501869         1.855170
 H         2.317766        -0.225606         1.954328
 H         4.675018         2.405918         0.994932
 H         1.897423         2.797700        -0.116001
 H         3.312787         2.642589        -1.289062
 H         1.390094         0.763775        -2.075589
 H         3.994598        -0.156857        -1.383194
