19
Iteration:   213charge 0 multiplicity 1
 C        -0.141846        -0.324290         0.037844
 C         1.389051        -0.003981         0.091337
 C         1.958352         0.630160         1.282150
 C         3.290294         1.113091         0.497943
 O         4.590267         1.380965         1.063706
 C         2.628078         2.095424        -0.682011
 C         1.990025         0.860718        -1.115858
 C         3.160702        -0.040089        -0.625735
 O         2.338959        -1.054996        -0.193638
 H        -0.578798        -0.505462         1.064385
 H        -0.615376         0.578633        -0.300369
 H        -0.393548        -1.002938        -0.750741
 H         1.286805         1.472408         1.683696
 H         2.194199        -0.147861         2.112314
 H         4.841591         2.275098         0.961312
 H         2.032740         3.005739        -0.554549
 H         3.394639         2.309847        -1.456571
 H         1.474261         0.843609        -2.120899
 H         4.162673        -0.274155        -1.188636
