19
Iteration:  1078
 C        -0.116200        -0.466010         0.178788
 C         1.286979         0.016125         0.100905
 C         2.075756         0.747115         1.280277
 C         3.253433         1.104431         0.405954
 O         4.482060         1.448410         1.074629
 C         2.747500         2.087011        -0.787299
 C         2.007300         0.878301        -1.247710
 C         3.151130         0.024455        -0.693779
 O         2.303528        -1.035611        -0.145102
 H         0.111398        -1.330368         0.689023
 H        -0.978633         0.091185         0.657231
 H        -0.511390        -0.771969        -0.895163
 H         1.518329         1.520273         1.813911
 H         2.419059        -0.142643         1.977154
 H         4.408112         1.358874         2.081385
 H         2.360899         3.009446        -0.213128
 H         3.628366         2.347597        -1.417204
 H         1.498882         0.733633        -2.151301
 H         4.060270        -0.359068        -1.074219
