19
Iteration:  3969charge 0 multiplicity 1
 C        -0.105185        -0.411029         0.243721
 C         1.367718        -0.064213         0.080968
 C         2.116939         0.631873         1.240163
 C         3.274638         1.175999         0.447806
 O         4.472878         1.580640         0.985156
 C         2.584756         2.115941        -0.682294
 C         1.958944         0.753278        -1.150927
 C         3.134108         0.020354        -0.745146
 O         2.394250        -1.107109        -0.199939
 H        -0.114582        -1.479322         0.442861
 H        -0.354250         0.335821         0.955559
 H        -0.773872        -0.024235        -0.631729
 H         1.620562         1.356950         1.754534
 H         2.437393        -0.108763         2.035788
 H         4.482171         1.515867         1.890431
 H         1.933090         2.833371        -0.192024
 H         3.318135         2.669521        -1.296515
 H         1.482034         0.575162        -2.129662
 H         4.071857        -0.164917        -1.420179
