19
Iteration:   737charge 0 multiplicity 1
 C        -0.095378        -0.440165         0.078533
 C         1.351257        -0.011678         0.066157
 C         1.982661         0.823502         1.222929
 C         3.300350         1.138607         0.415689
 O         4.558196         1.309758         1.055909
 C         2.686667         2.095750        -0.596453
 C         1.900949         0.821046        -1.138533
 C         3.154982         0.010812        -0.709094
 O         2.360038        -1.052112        -0.118242
 H        -0.279808        -1.285016         0.662363
 H        -0.658145         0.404735         0.297144
 H        -0.160013        -0.790463        -0.888516
 H         1.539033         1.826455         1.550986
 H         2.081188         0.353406         2.218910
 H         4.473109         2.092422         1.542143
 H         2.178183         3.002537        -0.320494
 H         3.379005         2.311223        -1.399862
 H         1.465377         0.759244        -2.105214
 H         3.874333        -0.308243        -1.435514
