19
Iteration:  3028
 C        -0.036276        -0.479973         0.223854
 C         1.356603        -0.025654         0.038569
 C         2.073107         0.699374         1.233430
 C         3.306975         1.100168         0.386337
 O         4.548759         1.517588         1.013614
 C         2.578357         2.122928        -0.522723
 C         1.875179         0.880947        -1.132794
 C         3.151006         0.029912        -0.768793
 O         2.387256        -1.122782        -0.295025
 H         0.043598        -1.240911         1.058300
 H        -0.521784         0.373236         0.664064
 H        -0.629452        -0.698711        -0.779382
 H         1.625560         1.545609         1.715783
 H         2.284261        -0.145887         2.138143
 H         4.347001         1.758335         1.896692
 H         1.949164         2.890979        -0.047859
 H         3.095359         2.726725        -1.261663
 H         1.113654         0.665704        -1.926509
 H         4.023060        -0.373144        -1.271999
