19
Iteration:  4317charge 0 multiplicity 1
 C        -0.046593        -0.526637         0.173253
 C         1.343935        -0.014521         0.102078
 C         2.171037         0.688072         1.299161
 C         3.264616         1.186900         0.371734
 O         4.493521         1.468264         0.950887
 C         2.597050         2.140035        -0.632482
 C         1.934190         0.861610        -1.092058
 C         3.115169        -0.011648        -0.692855
 O         2.315445        -1.054303        -0.229081
 H        -0.146560        -0.640823         1.231175
 H        -0.894217         0.075180        -0.179230
 H        -0.158083        -1.481986        -0.483920
 H         1.677922         1.422375         1.806853
 H         2.576044         0.008999         2.067888
 H         4.387550         1.646263         1.844048
 H         2.174291         3.120072        -0.452968
 H         3.432488         2.424426        -1.297776
 H         1.399456         0.965533        -1.964547
 H         4.011059        -0.295780        -1.282455
