19
Iteration:  3551charge 0 multiplicity 1
 C        -0.034639        -0.588170         0.293060
 C         1.413169        -0.018584         0.003356
 C         2.065433         0.830203         1.248300
 C         3.305092         1.108589         0.396125
 O         4.505896         1.530617         1.024702
 C         2.637687         2.128762        -0.545311
 C         1.807618         0.895072        -1.118558
 C         3.180677        -0.041316        -0.798671
 O         2.330408        -1.081740        -0.269258
 H         0.001447        -1.079292         1.239257
 H        -0.805657         0.163513         0.016180
 H        -0.215689        -1.423316        -0.438385
 H         1.579707         1.709463         1.553658
 H         2.142802         0.090149         2.027734
 H         4.579063         1.262187         1.896977
 H         2.153292         2.999049        -0.085798
 H         3.292461         2.445882        -1.342940
 H         1.303162         0.966757        -2.057310
 H         4.047432        -0.334080        -1.452128
