19
Iteration:  4618charge 0 multiplicity 1
 C        -0.032416        -0.423245         0.261055
 C         1.335161        -0.036467         0.025547
 C         2.129128         0.608889         1.298311
 C         3.284897         1.092565         0.420905
 O         4.512852         1.535257         0.956271
 C         2.578894         2.162939        -0.561871
 C         1.942485         0.855339        -1.105828
 C         3.136631         0.018979        -0.764988
 O         2.329316        -1.084087        -0.270135
 H        -0.482454         0.225499         1.034062
 H        -0.687789        -0.357770        -0.633019
 H        -0.044149        -1.557578         0.620240
 H         1.599387         1.448193         1.782694
 H         2.390139        -0.120532         1.965982
 H         4.580320         1.791121         1.851607
 H         2.016030         3.123503        -0.439872
 H         3.242935         2.414711        -1.374690
 H         1.426512         0.512642        -2.022575
 H         3.947059        -0.292179        -1.457037
