19
Iteration:   781
 C        -0.092058        -0.470969         0.043583
 C         1.345710         0.063563         0.072381
 C         2.069345         0.715672         1.267981
 C         3.273939         1.171178         0.500798
 O         4.563329         1.367230         0.966126
 C         2.620831         2.057770        -0.702561
 C         2.019879         0.830741        -1.146246
 C         3.148660         0.038451        -0.620079
 O         2.258696        -1.033205        -0.136305
 H        -0.594963        -0.662608         1.023188
 H        -0.573497         0.452153        -0.143900
 H        -0.291488        -1.281034        -0.590147
 H         1.531142         1.451024         1.958954
 H         2.299934        -0.148742         1.942814
 H         4.489524         1.716869         1.835348
 H         2.051212         2.919294        -0.440708
 H         3.438683         2.474236        -1.260585
 H         1.771650         0.738758        -2.183204
 H         4.048194        -0.131050        -1.221039
