19
Iteration:  2268charge 0 multiplicity 1
 C        -0.077958        -0.488206         0.109128
 C         1.367502        -0.003800         0.071619
 C         2.100030         0.689465         1.275972
 C         3.270322         1.159554         0.395600
 O         4.503256         1.539603         0.949871
 C         2.622249         2.161665        -0.565047
 C         1.940118         0.861253        -1.076365
 C         3.075937        -0.020313        -0.736418
 O         2.373721        -1.092174        -0.174085
 H        -0.167808        -1.463751         0.560115
 H        -0.639556         0.150873         0.919438
 H        -0.434205        -0.563843        -0.901095
 H         1.436218         1.485421         1.587200
 H         2.423941        -0.035098         2.175512
 H         4.704855         0.899862         1.641515
 H         1.939178         3.018702        -0.282156
 H         3.474363         2.359907        -1.261180
 H         1.606293         0.691536        -2.116995
 H         4.004722        -0.257287        -1.242590
