19
Iteration:  3556
 C        -0.008763        -0.584827         0.278519
 C         1.391460        -0.008325        -0.000661
 C         2.053018         0.804989         1.228643
 C         3.288019         1.137061         0.412994
 O         4.519167         1.526512         1.007169
 C         2.644690         2.117750        -0.565247
 C         1.848614         0.887855        -1.105246
 C         3.156683        -0.036026        -0.784333
 O         2.320187        -1.053836        -0.270837
 H        -0.103116        -1.140426         1.285707
 H        -0.793807         0.103420        -0.019587
 H        -0.137615        -1.518436        -0.343411
 H         1.516585         1.708283         1.696985
 H         2.259846         0.068291         2.088919
 H         4.620849         1.056038         1.943667
 H         2.143640         3.012709        -0.133079
 H         3.321624         2.540643        -1.362014
 H         1.160426         0.856122        -2.005400
 H         4.056879        -0.310821        -1.328737
