19
Iteration:  4583
 C        -0.089754        -0.359041         0.185806
 C         1.408480        -0.058303         0.094614
 C         2.146777         0.672129         1.280748
 C         3.283270         1.142214         0.406928
 O         4.503759         1.479118         0.939467
 C         2.432094         2.239203        -0.548503
 C         1.964189         0.804116        -1.086865
 C         3.136029        -0.077307        -0.805909
 O         2.443900        -1.121962        -0.237188
 H        -0.527833         0.604610         0.725461
 H        -0.533232        -0.503707        -0.853883
 H        -0.321756        -1.230126         0.820493
 H         1.752955         1.541890         1.805585
 H         2.594217         0.044459         2.064150
 H         4.485045         1.129153         1.793556
 H         1.719850         2.851758         0.092749
 H         2.998671         2.741447        -1.400437
 H         1.214189         0.731024        -2.023513
 H         4.047878        -0.231655        -1.401179
