19
Iteration:  2855charge 0 multiplicity 1
 C        -0.164232        -0.445199         0.214936
 C         1.380972        -0.057842         0.074962
 C         2.121686         0.584390         1.329701
 C         3.261123         1.253031         0.426257
 O         4.491362         1.499760         0.951114
 C         2.609672         2.152551        -0.585675
 C         1.902048         0.821143        -1.144388
 C         3.153580         0.065191        -0.764038
 O         2.416821        -1.063748        -0.279152
 H        -0.261716        -1.480239         0.641362
 H        -0.503406         0.211587         1.136763
 H        -0.616318        -0.630819        -0.833710
 H         1.481101         1.230584         1.846042
 H         2.528533        -0.170206         2.040508
 H         4.496437         1.344885         1.950087
 H         2.083101         3.123158        -0.322258
 H         3.559597         2.219391        -1.221719
 H         1.466762         0.711293        -2.129294
 H         4.015992        -0.254700        -1.300706
