19
Iteration:  2550charge 0 multiplicity 1
 C        -0.126301        -0.437959         0.174360
 C         1.349953        -0.003274         0.106883
 C         2.143609         0.542637         1.354931
 C         3.237824         1.116385         0.468849
 O         4.492572         1.515501         0.918143
 C         2.545081         2.176200        -0.633577
 C         1.961392         0.829844        -1.140443
 C         3.195763         0.081293        -0.718212
 O         2.391349        -1.012595        -0.250960
 H        -0.611642        -0.779631         1.070617
 H        -0.862643         0.432118        -0.098538
 H        -0.083026        -1.300958        -0.515262
 H         1.523914         1.197532         2.172616
 H         2.544489        -0.327171         1.807715
 H         4.877821         1.016533         1.762379
 H         1.917508         2.945061        -0.155717
 H         3.418471         2.435277        -1.321128
 H         1.481487         0.647503        -2.113784
 H         3.922698        -0.211215        -1.453254
