19
Iteration:  1808
 C        -0.114703        -0.438272         0.252554
 C         1.315371         0.009137         0.117372
 C         2.104570         0.639528         1.252124
 C         3.247473         1.180576         0.390259
 O         4.418025         1.537180         1.110811
 C         2.662764         2.098458        -0.706939
 C         1.993909         0.885365        -1.186902
 C         3.205377         0.027756        -0.701172
 O         2.332445        -1.106820        -0.251646
 H        -0.142634        -1.300946         0.914995
 H        -0.940541         0.214543         0.615341
 H        -0.286513        -0.835275        -0.810306
 H         1.534967         1.412987         1.902329
 H         2.622078        -0.104921         1.794786
 H         4.908533         0.760071         1.371069
 H         2.231804         3.055970        -0.388589
 H         3.547468         2.269102        -1.377997
 H         1.465256         0.675741        -2.180155
 H         4.026740        -0.101567        -1.403707
