19
Iteration:  4446
 C        -0.009759        -0.460493         0.196797
 C         1.371219         0.034299         0.121157
 C         2.100606         0.634989         1.296607
 C         3.301204         1.157959         0.398846
 O         4.577113         1.532172         0.935722
 C         2.586677         2.105414        -0.514629
 C         1.895334         0.858507        -1.174263
 C         3.060967        -0.023880        -0.716919
 O         2.338820        -1.077556        -0.297509
 H        -0.691311         0.321461         0.235590
 H        -0.252728        -0.967652        -0.704464
 H        -0.361306        -1.077980         1.093118
 H         1.648780         1.412782         2.007938
 H         2.443675        -0.296094         1.834897
 H         4.477213         1.701607         1.971451
 H         1.816272         2.760468        -0.072495
 H         3.262979         2.599263        -1.192897
 H         1.408900         0.533484        -1.999607
 H         3.881255        -0.185650        -1.496143
