19
Iteration:  4676
 C         0.012593        -0.571344         0.272893
 C         1.377989         0.065375         0.106357
 C         2.053922         0.741257         1.193194
 C         3.262593         1.161957         0.385213
 O         4.531560         1.231733         0.977032
 C         2.606932         2.207094        -0.641698
 C         1.830164         0.906363        -1.164913
 C         3.113291         0.130353        -0.752690
 O         2.399674        -1.035071        -0.181889
 H        -0.804618         0.139830         0.501865
 H        -0.135877        -1.202185        -0.618573
 H         0.073556        -1.266299         1.270344
 H         1.534855         1.497438         1.765356
 H         2.483945        -0.022684         1.927216
 H         4.457533         1.622246         1.939162
 H         1.877940         2.988038        -0.361799
 H         3.278429         2.469292        -1.486562
 H         1.138387         0.860669        -2.008018
 H         4.067788        -0.173143        -1.249279
