19
Iteration:  4269
 C        -0.078740        -0.370238         0.258912
 C         1.412750        -0.075814         0.016894
 C         2.106504         0.692479         1.250261
 C         3.261543         1.121244         0.447586
 O         4.456635         1.554157         0.923342
 C         2.531972         2.095133        -0.593104
 C         1.964732         0.805881        -1.149322
 C         3.207245        -0.002048        -0.705516
 O         2.430946        -1.132504        -0.207299
 H        -0.519963        -1.187586         0.869998
 H        -0.566879         0.553126         0.708683
 H        -0.558082        -0.255610        -0.711561
 H         1.530122         1.581146         1.748423
 H         2.262476        -0.035510         2.043890
 H         4.543938         1.152410         1.867325
 H         1.839856         2.927039        -0.265846
 H         2.992341         2.631690        -1.444087
 H         1.283076         0.807756        -2.074992
 H         4.088168        -0.371001        -1.324111
