19
Iteration:  3333
 C        -0.077395        -0.463824         0.167341
 C         1.396421        -0.058297         0.129059
 C         2.130749         0.641537         1.274315
 C         3.306871         1.162795         0.418046
 O         4.523508         1.603044         0.969508
 C         2.564198         2.109768        -0.536620
 C         1.912838         0.864518        -1.090351
 C         3.101141        -0.029298        -0.819961
 O         2.360346        -1.093324        -0.266129
 H        -0.372215        -0.794501         1.135606
 H        -0.751988         0.390681        -0.110784
 H        -0.074487        -1.159044        -0.661246
 H         1.527083         1.514713         1.904346
 H         2.403435        -0.124334         1.964738
 H         4.691230         1.299670         1.935112
 H         1.916180         2.738520         0.108654
 H         3.138645         2.624828        -1.320203
 H         1.402125         0.641530        -2.030722
 H         3.922412        -0.256580        -1.498835
