19
Iteration:  4136charge 0 multiplicity 1
 C        -0.070653        -0.433740         0.197819
 C         1.389792        -0.027898         0.139643
 C         2.171291         0.671834         1.193379
 C         3.324345         1.119436         0.398247
 O         4.519542         1.601365         0.986928
 C         2.570215         2.061488        -0.557153
 C         1.895295         0.847059        -1.063563
 C         3.152540        -0.012698        -0.783214
 O         2.304728        -1.128713        -0.268914
 H        -0.331333        -0.557752         1.319872
 H        -0.569003         0.359431        -0.416509
 H        -0.228690        -1.353572        -0.249957
 H         1.584758         1.593795         1.598793
 H         2.272908         0.044953         2.054417
 H         4.276167         1.676775         1.965229
 H         1.822600         2.767879        -0.114155
 H         3.335663         2.491398        -1.218867
 H         1.495997         0.715363        -2.140940
 H         3.921379        -0.253926        -1.404870
