19
Iteration:  3411charge 0 multiplicity 1
 C         0.014023        -0.577520         0.289278
 C         1.325541        -0.014446         0.100568
 C         2.021920         0.700051         1.229933
 C         3.252424         1.199333         0.317382
 O         4.530904         1.313983         1.031549
 C         2.598511         2.205934        -0.563380
 C         1.899893         0.858224        -1.187175
 C         3.157753         0.085635        -0.748178
 O         2.396016        -1.032009        -0.221300
 H         0.013865        -1.299561         1.131663
 H        -0.774461         0.138784         0.236010
 H        -0.301621        -1.196652        -0.589621
 H         1.391795         1.616859         1.697148
 H         2.285803        -0.010772         2.006614
 H         4.448049         2.167731         1.425273
 H         2.067447         3.056913        -0.068798
 H         3.292473         2.568675        -1.350630
 H         1.437359         0.760057        -2.111846
 H         4.029788        -0.052317        -1.413380
