19
Iteration:  2232charge 0 multiplicity 1
 C        -0.066274        -0.438989         0.279000
 C         1.396023         0.003374         0.012464
 C         2.136697         0.623033         1.204683
 C         3.257294         1.186281         0.421105
 O         4.442093         1.614301         1.114852
 C         2.628652         2.131250        -0.630182
 C         1.978115         0.834528        -1.163018
 C         3.130045        -0.080942        -0.724611
 O         2.313295        -1.088711        -0.283239
 H         0.122775        -1.408903         0.762922
 H        -0.595938         0.199360         0.917487
 H        -0.735158        -0.591809        -0.586728
 H         1.524894         1.487141         1.734606
 H         2.385291        -0.153565         1.930490
 H         4.754191         0.832006         1.621165
 H         2.040258         3.016597        -0.355448
 H         3.332411         2.469501        -1.383814
 H         1.527453         0.757278        -2.157199
 H         3.987260        -0.357437        -1.395601
