19
Iteration:  4628charge 0 multiplicity 1
 C        -0.062561        -0.498972         0.273426
 C         1.395912        -0.004980         0.094822
 C         2.071997         0.658454         1.315167
 C         3.298773         1.183492         0.406721
 O         4.525702         1.528361         0.945051
 C         2.658314         2.130290        -0.592094
 C         1.886056         0.912228        -1.108470
 C         3.147333        -0.061085        -0.755361
 O         2.321487        -1.108121        -0.331044
 H        -0.529324         0.147813         1.065087
 H        -0.736462        -0.482325        -0.612790
 H        -0.016337        -1.574029         0.677085
 H         1.414927         1.425763         1.752974
 H         2.292637        -0.070084         2.036460
 H         4.314267         1.823752         1.784773
 H         2.055407         2.937932        -0.100528
 H         3.396215         2.448559        -1.337568
 H         1.476008         0.973446        -2.152357
 H         3.990194        -0.433989        -1.368647
