19
Iteration:  3532charge 0 multiplicity 1
 C        -0.051193        -0.500911         0.316534
 C         1.363066        -0.039540         0.117944
 C         2.081812         0.663492         1.197149
 C         3.302530         1.135036         0.338795
 O         4.475199         1.537554         1.036567
 C         2.642726         2.121416        -0.597272
 C         1.960705         0.880601        -1.138946
 C         3.075322         0.016558        -0.793886
 O         2.397829        -1.098054        -0.262344
 H        -0.145574        -1.412101         1.045478
 H        -0.673855         0.389635         0.427963
 H        -0.497195        -1.078933        -0.616409
 H         1.509576         1.584316         1.524218
 H         2.356718         0.192575         2.093305
 H         4.218541         1.521543         1.972953
 H         2.019064         2.935662        -0.132577
 H         3.330755         2.656917        -1.297287
 H         1.422464         0.784158        -2.030145
 H         3.955401        -0.172955        -1.475743
