19
Iteration:  2573charge 0 multiplicity 1
 C        -0.038216        -0.490050         0.129774
 C         1.375715        -0.052967         0.068955
 C         2.093066         0.658805         1.281348
 C         3.244684         1.142662         0.432466
 O         4.538246         1.572721         0.936584
 C         2.588953         2.186598        -0.529116
 C         1.909453         0.859897        -1.065527
 C         3.129129        -0.014843        -0.717591
 O         2.347062        -1.115208        -0.257581
 H        -0.437080        -0.734425         1.093595
 H        -0.640135         0.509539        -0.100547
 H        -0.288297        -1.302948        -0.550558
 H         1.532107         1.548185         1.822313
 H         2.320200        -0.120853         1.964316
 H         4.944255         0.840958         1.294619
 H         1.979309         2.873481         0.033305
 H         3.486538         2.516796        -1.102586
 H         1.318630         0.957865        -1.952026
 H         3.945597        -0.133977        -1.385674
