19
Iteration:  2146
 C        -0.061101        -0.506022         0.090392
 C         1.337953         0.021350         0.116573
 C         2.050137         0.808945         1.272585
 C         3.305859         1.089630         0.386697
 O         4.528357         1.499153         0.926791
 C         2.596052         2.076179        -0.485538
 C         1.914378         0.861161        -1.079592
 C         3.162802         0.025364        -0.761410
 O         2.378730        -1.102482        -0.189230
 H        -0.396266        -0.932852         1.036497
 H        -0.690840         0.278981        -0.404252
 H        -0.070501        -1.384620        -0.607541
 H         1.625874         1.603641         1.706148
 H         2.088553         0.084326         2.131953
 H         4.673254         0.917374         1.631510
 H         1.990239         2.835740         0.081336
 H         3.180479         2.593088        -1.255817
 H         1.366102         0.870154        -2.003772
 H         4.009256         0.023745        -1.406696
