19
Iteration:  1774charge 0 multiplicity 1
 C        -0.038305        -0.360361         0.169627
 C         1.410254        -0.017274         0.055900
 C         2.044974         0.698604         1.164979
 C         3.317209         1.108337         0.439647
 O         4.514982         1.572987         1.039450
 C         2.546425         2.077401        -0.501457
 C         1.918222         0.836943        -1.171968
 C         3.156017        -0.010826        -0.766508
 O         2.333229        -1.164192        -0.184308
 H        -0.234076        -0.874538         1.107547
 H        -0.691117         0.494903        -0.075357
 H        -0.170713        -1.205578        -0.592910
 H         1.481638         1.587150         1.529600
 H         2.252776         0.158906         2.150545
 H         4.824493         0.731186         1.616218
 H         2.003130         2.881029         0.024230
 H         3.183522         2.661237        -1.171185
 H         1.464200         1.073283        -2.278690
 H         4.016344        -0.288707        -1.485717
