19
Iteration:   822
 C        -0.028721        -0.295974         0.187335
 C         1.378027        -0.108341         0.005559
 C         2.062555         0.772234         1.222099
 C         3.283560         1.055915         0.345309
 O         4.451803         1.455171         1.157918
 C         2.669983         2.069560        -0.610511
 C         2.019950         0.814555        -1.174086
 C         3.105220        -0.052591        -0.741885
 O         2.342454        -1.093201        -0.214582
 H        -0.077725        -0.573100         1.402079
 H        -0.581387         0.671398         0.032696
 H        -0.592650        -0.923151        -0.424272
 H         1.562191         1.622050         1.399328
 H         2.324853         0.164172         2.006111
 H         4.047786         2.088640         1.905239
 H         1.908569         2.801708        -0.233294
 H         3.290017         2.582770        -1.402134
 H         1.532699         0.721213        -2.097514
 H         3.954346        -0.270470        -1.300231
