19
Iteration:  4418
 C        -0.092133        -0.448300         0.184067
 C         1.390801        -0.028704         0.119386
 C         2.116059         0.659714         1.251506
 C         3.337753         1.140751         0.361317
 O         4.537580         1.516027         0.926842
 C         2.615864         2.123401        -0.487742
 C         1.923358         0.939906        -1.057510
 C         3.111747        -0.015789        -0.723911
 O         2.338684        -1.126981        -0.278884
 H        -0.805791         0.114238         0.928447
 H        -0.634857        -0.554455        -0.803405
 H        -0.173514        -1.472665         0.515406
 H         1.503133         1.399209         1.680291
 H         2.447649        -0.053628         2.005003
 H         4.301279         2.041653         1.804190
 H         1.844337         2.817338        -0.186536
 H         3.186011         2.307791        -1.430664
 H         1.491338         0.630877        -2.128911
 H         3.945570        -0.152661        -1.331989
