19
Iteration:   123
 C        -0.077317        -0.399803         0.273203
 C         1.351654        -0.004988         0.052397
 C         2.016953         0.728333         1.181719
 C         3.237186         1.150548         0.388613
 O         4.343544         1.423293         1.195906
 C         2.867837         2.178696        -0.756131
 C         2.074962         0.872869        -1.238326
 C         3.173226        -0.050128        -0.762342
 O         2.249683        -1.049174        -0.160379
 H        -0.102213        -1.179730         1.025534
 H        -0.647442         0.403650         0.767880
 H        -0.451118        -0.727556        -0.584709
 H         1.346832         1.501371         1.591966
 H         2.126488        -0.034767         1.982577
 H         4.730909         0.572092         1.463441
 H         2.424510         3.064094        -0.341827
 H         3.646312         2.362260        -1.474346
 H         1.604289         0.525527        -2.213732
 H         4.046948        -0.418111        -1.263859
