19
Iteration:  2151
 C        -0.070202        -0.523068         0.087135
 C         1.351625         0.037057         0.101445
 C         2.088068         0.780893         1.295403
 C         3.286559         1.113671         0.392947
 O         4.516707         1.480185         0.915983
 C         2.595152         2.083597        -0.517928
 C         1.889757         0.891975        -1.080437
 C         3.197771        -0.007836        -0.730956
 O         2.378506        -1.077092        -0.182658
 H        -0.505783        -0.939586         1.028543
 H        -0.761823         0.308641        -0.367017
 H        -0.049953        -1.399839        -0.554487
 H         1.504580         1.729041         1.801648
 H         2.215711        -0.064526         2.084474
 H         4.629574         0.863749         1.720409
 H         1.883060         2.771952        -0.058627
 H         3.215515         2.644498        -1.238122
 H         1.376058         0.921134        -2.070671
 H         4.068608        -0.043612        -1.463691
