19
Iteration:  3722
 C        -0.053357        -0.580023         0.220236
 C         1.340024         0.031986         0.104065
 C         2.068481         0.790434         1.221217
 C         3.234086         1.182512         0.344551
 O         4.477206         1.334160         1.046336
 C         2.580264         2.139226        -0.646779
 C         1.918553         0.831101        -1.184887
 C         3.165938         0.047349        -0.736440
 O         2.414076        -1.014301        -0.082995
 H         0.047428        -1.701115         0.653780
 H        -0.638643         0.169887         0.869577
 H        -0.418472        -0.657616        -0.797693
 H         1.534667         1.480335         1.773615
 H         2.386229        -0.048709         1.824884
 H         4.973969         2.115913         0.788604
 H         1.885860         2.975476        -0.493137
 H         3.399220         2.417086        -1.369208
 H         1.385891         0.758016        -2.172175
 H         4.091607        -0.186619        -1.158099
