19
Iteration:  4209charge 0 multiplicity 1
 C        -0.071420        -0.613867         0.250272
 C         1.342720        -0.004571         0.088753
 C         2.075797         0.789619         1.202586
 C         3.349191         1.170090         0.404759
 O         4.487127         1.557808         1.039894
 C         2.712599         2.142550        -0.623900
 C         1.946753         0.876287        -1.127812
 C         3.046704        -0.051125        -0.749637
 O         2.321933        -1.073261        -0.166088
 H         0.111599        -1.658346         0.424109
 H        -0.789572        -0.096723         0.867276
 H        -0.504812        -0.661290        -0.841731
 H         1.465806         1.662286         1.277208
 H         2.259679         0.346509         2.273262
 H         5.091966         0.890223         1.138863
 H         2.068683         2.871703        -0.184433
 H         3.344164         2.457325        -1.467517
 H         1.379036         0.786852        -2.058001
 H         3.758546        -0.298023        -1.554034
