19
Iteration:  2890charge 0 multiplicity 1
 C        -0.037111        -0.524359         0.180351
 C         1.418620        -0.001307         0.098745
 C         2.115014         0.704291         1.249892
 C         3.337934         1.143649         0.367726
 O         4.482849         1.577356         0.992751
 C         2.545892         2.093344        -0.482225
 C         1.954649         0.895592        -1.118594
 C         3.144733        -0.046189        -0.823937
 O         2.297160        -1.078108        -0.247397
 H         0.104871        -1.508264         0.669780
 H        -0.827889         0.176708         0.788307
 H        -0.630301        -0.525700        -0.766746
 H         1.622027         1.626286         1.626620
 H         2.315385         0.106526         2.063413
 H         4.547149         0.868415         1.746329
 H         1.963256         2.938191        -0.007106
 H         3.225073         2.708259        -1.159090
 H         1.348096         0.686955        -2.025164
 H         4.056411        -0.486345        -1.343385
