19
Iteration:  1742
 C        -0.128396        -0.437942         0.101070
 C         1.382074        -0.035010         0.129861
 C         2.101382         0.604034         1.372837
 C         3.209995         1.154445         0.511862
 O         4.534706         1.473013         0.920586
 C         2.597224         2.157564        -0.669929
 C         1.946515         0.845439        -1.185004
 C         3.191304         0.096081        -0.661100
 O         2.334500        -1.073670        -0.223280
 H        -0.434293        -0.751918         1.133761
 H        -0.763624         0.434951        -0.302465
 H        -0.344663        -1.283578        -0.699378
 H         1.557191         1.336357         2.039150
 H         2.524374        -0.139301         1.985121
 H         4.642437         1.110728         1.799144
 H         2.041150         3.050607        -0.311863
 H         3.474523         2.300838        -1.321460
 H         1.603272         0.949362        -2.305929
 H         4.148381        -0.256246        -1.181349
