19
Iteration:  4339charge 0 multiplicity 1
 C        -0.045876        -0.652714         0.282692
 C         1.326673         0.039189         0.139281
 C         2.010128         0.738087         1.232335
 C         3.314139         1.151883         0.414553
 O         4.554803         1.422415         0.969495
 C         2.692986         2.109555        -0.648129
 C         1.846999         0.941394        -1.139067
 C         3.116389         0.036754        -0.768262
 O         2.346861        -1.043754        -0.226953
 H        -0.455936        -0.554638         1.266057
 H        -0.643747        -0.035058        -0.377904
 H        -0.012686        -1.669088        -0.271671
 H         1.468748         1.499450         1.632336
 H         2.145486        -0.007596         2.049786
 H         4.720728         1.887898         1.909593
 H         2.185502         2.965624        -0.219446
 H         3.406786         2.608777        -1.291479
 H         1.602549         0.759860        -2.138853
 H         3.976773        -0.131302        -1.414655
