19
Iteration:  1281charge 0 multiplicity 1
 C        -0.113892        -0.392945         0.179981
 C         1.336961         0.097614         0.055713
 C         2.128150         0.693200         1.226313
 C         3.306553         1.149932         0.367049
 O         4.437438         1.552135         1.127627
 C         2.702173         2.038666        -0.650618
 C         1.976564         0.857528        -1.166449
 C         3.155212        -0.090935        -0.687544
 O         2.273731        -1.101500        -0.245761
 H         0.178143        -1.285367         0.788024
 H        -0.717335         0.283451         0.691455
 H        -0.537195        -0.686015        -0.705074
 H         1.665688         1.614253         1.688933
 H         2.406108        -0.022619         1.949938
 H         4.534327         0.868253         1.749060
 H         2.057059         2.665115        -0.107926
 H         3.350154         2.511713        -1.347637
 H         1.669963         0.697487        -2.229885
 H         4.067005        -0.332679        -1.293050
