19
Iteration:   218charge 0 multiplicity 1
 C        -0.142323        -0.303949         0.103533
 C         1.351975        -0.045099         0.057491
 C         1.974069         0.662624         1.273116
 C         3.263933         1.084560         0.478631
 O         4.571304         1.389555         1.084072
 C         2.652073         2.128430        -0.661390
 C         1.989886         0.886686        -1.135328
 C         3.210600        -0.057398        -0.631480
 O         2.339403        -1.084496        -0.222175
 H        -0.572460        -0.514340         1.069454
 H        -0.619485         0.647215        -0.301658
 H        -0.243283        -1.146860        -0.761202
 H         1.309838         1.458666         1.533855
 H         2.147354         0.032858         2.091168
 H         4.924417         2.363511         0.936380
 H         1.975335         2.995777        -0.458478
 H         3.382596         2.327957        -1.460140
 H         1.394555         0.838585        -2.018806
 H         4.089745        -0.412299        -1.037861
