19
Iteration:  4688
 C        -0.000326        -0.524254         0.276935
 C         1.377814        -0.039820         0.118326
 C         2.132297         0.766807         1.283813
 C         3.237935         1.187027         0.384961
 O         4.503117         1.189701         0.917420
 C         2.522724         2.234248        -0.603076
 C         1.853750         0.874525        -1.162768
 C         3.097218         0.114523        -0.750589
 O         2.451605        -1.008954        -0.196791
 H        -0.743830         0.320932         0.086264
 H        -0.247711        -1.237746        -0.555520
 H        -0.214868        -1.146589         1.264325
 H         1.555186         1.652174         1.555947
 H         2.241641        -0.016635         2.147945
 H         4.438137         1.634447         1.808968
 H         1.964517         3.163800        -0.365964
 H         3.411016         2.616360        -1.203311
 H         1.654393         0.580341        -2.226387
 H         3.970441        -0.067614        -1.428209
