19
Iteration:  2505
 C        -0.025923        -0.505661         0.268248
 C         1.365708        -0.000699         0.119013
 C         2.054006         0.710876         1.227621
 C         3.328456         1.149841         0.386437
 O         4.481255         1.541431         1.073207
 C         2.629124         2.114393        -0.547090
 C         1.947052         0.858614        -1.106148
 C         3.119577        -0.022054        -0.882543
 O         2.360968        -1.097998        -0.331824
 H        -0.239570        -1.153880         1.147481
 H        -0.529892         0.408445         0.668088
 H        -0.447788        -0.988820        -0.641912
 H         1.587148         1.781174         1.448666
 H         2.113287         0.111794         2.133010
 H         4.455145         0.996253         1.946198
 H         1.837147         2.790818        -0.143545
 H         3.349737         2.659938        -1.259588
 H         1.354170         0.644383        -2.034472
 H         3.992739        -0.253211        -1.531417
