19
Iteration:   784
 C        -0.129575        -0.440200         0.059918
 C         1.336807         0.064773         0.067790
 C         2.070122         0.710863         1.270254
 C         3.259103         1.163618         0.501025
 O         4.576382         1.376532         0.980146
 C         2.624441         2.064630        -0.721177
 C         2.024545         0.816605        -1.140191
 C         3.128102         0.025688        -0.625197
 O         2.295742        -1.042424        -0.157888
 H        -0.418864        -0.643231         0.996147
 H        -0.589893         0.528692        -0.146738
 H        -0.304271        -1.410532        -0.565311
 H         1.516120         1.422405         2.028809
 H         2.278842        -0.138996         2.030149
 H         4.407049         1.732931         1.860387
 H         2.018921         2.924037        -0.391607
 H         3.473958         2.440781        -1.296777
 H         1.741139         0.746149        -2.231508
 H         4.119199        -0.069553        -1.201846
