19
Iteration:  2592charge 0 multiplicity 1
 C        -0.049096        -0.471881         0.174588
 C         1.382111        -0.001592         0.133039
 C         2.053785         0.684145         1.253865
 C         3.388223         1.113930         0.336027
 O         4.489948         1.549033         1.030413
 C         2.589541         2.130911        -0.462197
 C         1.899993         0.878236        -1.105049
 C         3.130996        -0.007125        -0.809087
 O         2.336405        -1.087895        -0.248207
 H        -0.120820        -1.120618         1.046543
 H        -0.834047         0.244439         0.081873
 H        -0.203368        -1.145445        -0.686409
 H         1.490416         1.729551         1.367957
 H         2.183066         0.194508         2.202946
 H         4.978854         0.779609         1.241132
 H         1.932602         2.725408         0.154501
 H         3.071111         2.484281        -1.363567
 H         1.495984         0.827097        -2.160463
 H         3.997696        -0.256944        -1.463104
