19
Iteration:  2402
 C        -0.079084        -0.456401         0.147869
 C         1.312784         0.012281         0.078696
 C         2.185772         0.611884         1.306392
 C         3.239851         1.182848         0.439924
 O         4.460443         1.505500         0.961221
 C         2.606961         2.107970        -0.587869
 C         1.930795         0.834957        -1.184694
 C         3.090218         0.018030        -0.673272
 O         2.416944        -1.032280        -0.236416
 H        -0.132062        -1.124976         1.073191
 H        -0.796785         0.356395         0.073485
 H        -0.413833        -1.033315        -0.752715
 H         1.815034         1.295507         2.046437
 H         2.557747        -0.353608         2.030119
 H         4.666389         1.095655         1.784641
 H         2.021093         3.030471        -0.314707
 H         3.383842         2.294288        -1.391250
 H         1.335985         0.869779        -2.078120
 H         4.034014         0.019305        -1.208345
