19
Iteration:   159charge 0 multiplicity 1
 C        -0.063562        -0.376686         0.067428
 C         1.383959         0.060500         0.028814
 C         1.923422         0.817378         1.237724
 C         3.350206         1.110189         0.479998
 O         4.623327         1.394090         1.040375
 C         2.693069         2.118213        -0.601539
 C         1.948916         0.762251        -1.157250
 C         3.116029        -0.056646        -0.698161
 O         2.255060        -1.086190        -0.137452
 H        -0.154347        -1.388381         0.648612
 H        -0.853078         0.343966         0.309556
 H        -0.412712        -0.711646        -0.990598
 H         1.437031         1.824741         1.481169
 H         2.129904         0.161489         2.168845
 H         4.544398         1.511749         1.992411
 H         2.104124         2.950636        -0.162722
 H         3.333910         2.593528        -1.382540
 H         1.550987         0.588775        -2.180110
 H         4.003861        -0.274361        -1.423123
