19
Iteration:   865
 C        -0.126914        -0.461097         0.120765
 C         1.335929        -0.007724         0.030217
 C         2.049053         0.728378         1.317136
 C         3.259930         1.164874         0.425553
 O         4.497782         1.417798         1.008310
 C         2.757924         2.135276        -0.711682
 C         1.967060         0.855351        -1.229164
 C         3.183473        -0.012796        -0.599780
 O         2.281807        -1.090097        -0.153760
 H        -0.015012        -1.256745         0.861980
 H        -0.637902         0.392230         0.578185
 H        -0.658375        -0.600936        -0.758526
 H         1.490121         1.521878         1.725542
 H         2.328873        -0.023753         2.009648
 H         4.333905         1.997781         1.818297
 H         2.227589         3.011169        -0.253378
 H         3.641336         2.377732        -1.365884
 H         1.651534         0.627026        -2.209468
 H         4.003499        -0.367713        -1.129730
