19
Iteration:  3843
 C        -0.090896        -0.499571         0.211539
 C         1.374525        -0.049122         0.090105
 C         2.102039         0.721303         1.234305
 C         3.319770         1.191317         0.334706
 O         4.537025         1.451037         0.998426
 C         2.544482         2.115958        -0.512573
 C         1.880561         0.840612        -1.114989
 C         3.152049        -0.009482        -0.805189
 O         2.400660        -1.085035        -0.226431
 H        -0.169225        -0.800089         1.292084
 H        -0.689980         0.427792         0.237165
 H        -0.164633        -1.185590        -0.532265
 H         1.514974         1.626149         1.453225
 H         2.272859         0.200893         2.136633
 H         4.319549         1.994470         1.790080
 H         1.943275         2.877391         0.015020
 H         3.064420         2.529835        -1.385590
 H         1.457618         0.668418        -2.094279
 H         4.022225        -0.181267        -1.336194
