19
Iteration:  3049charge 0 multiplicity 1
 C        -0.012761        -0.496983         0.260620
 C         1.336233         0.001706         0.076099
 C         2.160482         0.651203         1.242804
 C         3.241843         1.197416         0.373580
 O         4.506125         1.382320         1.005800
 C         2.484105         2.157304        -0.594108
 C         2.008772         0.846959        -1.183919
 C         3.147239         0.040173        -0.764879
 O         2.343106        -1.016834        -0.214878
 H         0.046448        -1.543422         0.798576
 H        -0.680272         0.013965         0.970860
 H        -0.511234        -0.540856        -0.861375
 H         1.576138         1.326922         1.789743
 H         2.561677        -0.044923         2.073939
 H         4.400462         1.681227         2.024086
 H         1.809290         2.952790        -0.252735
 H         3.146176         2.753710        -1.221949
 H         1.682532         0.785369        -2.282640
 H         3.950338        -0.252470        -1.432895
