19
Iteration:  4963charge 0 multiplicity 1
 C        -0.035230        -0.571411         0.238505
 C         1.376197        -0.023188         0.085650
 C         2.155766         0.628193         1.271445
 C         3.312964         1.097754         0.348801
 O         4.535710         1.527541         1.060067
 C         2.574294         2.238988        -0.545575
 C         1.906199         0.896796        -1.096697
 C         3.094675         0.001232        -0.748940
 O         2.257085        -1.066974        -0.285185
 H        -0.737221         0.189146         0.688542
 H        -0.507194        -0.953813        -0.712082
 H        -0.034509        -1.392479         0.895590
 H         1.743673         1.406519         1.864458
 H         2.475570        -0.209622         1.957479
 H         5.042540         2.161305         0.391354
 H         2.163007         3.113712        -0.062969
 H         3.247099         2.572880        -1.424798
 H         1.472553         0.604055        -2.010242
 H         3.786034        -0.326549        -1.431031
