19
Iteration:  3665
 C        -0.075807        -0.455622         0.247874
 C         1.341674        -0.016366         0.039417
 C         2.136071         0.599615         1.320755
 C         3.270823         1.119454         0.377740
 O         4.441748         1.581469         1.091158
 C         2.680456         2.120220        -0.708785
 C         1.929822         0.868709        -1.162195
 C         3.174852        -0.060709        -0.729218
 O         2.331594        -1.080227        -0.213080
 H         0.225572        -1.499095         0.943623
 H        -0.607945         0.331835         0.888218
 H        -0.905527        -0.663379        -0.589225
 H         1.469148         1.358983         1.844787
 H         2.389399        -0.160162         1.921888
 H         4.515354         2.549916         0.824585
 H         1.970682         2.962553        -0.498090
 H         3.543619         2.420910        -1.396534
 H         1.401390         0.627818        -2.144721
 H         4.088438        -0.300896        -1.279133
