19
Iteration:  3802charge 0 multiplicity 1
 C        -0.058945        -0.398750         0.271428
 C         1.377421        -0.015824         0.044350
 C         2.208580         0.564857         1.261581
 C         3.222623         1.186348         0.422062
 O         4.422549         1.641192         1.002938
 C         2.613137         2.104525        -0.606491
 C         1.917162         0.782798        -1.182329
 C         3.174623         0.012276        -0.714860
 O         2.346212        -1.079974        -0.264136
 H        -0.285596        -0.433352         1.356268
 H        -0.887000         0.300798        -0.107195
 H        -0.290427        -1.411825        -0.201467
 H         1.553189         1.199050         1.855612
 H         2.536148        -0.317258         1.985060
 H         4.705976         0.804586         1.405677
 H         2.038678         2.963616        -0.228985
 H         3.389244         2.472094        -1.259071
 H         1.301343         0.716250        -2.068173
 H         4.140515        -0.343558        -1.324160
