19
Iteration:  3580charge 0 multiplicity 1
 C        -0.096837        -0.599751         0.252131
 C         1.379185        -0.013870         0.085205
 C         2.104507         0.697880         1.355348
 C         3.237780         1.172384         0.392092
 O         4.468691         1.457746         0.974254
 C         2.605804         2.230011        -0.670122
 C         1.939330         0.914333        -1.195308
 C         3.176492         0.069980        -0.697451
 O         2.346506        -1.055411        -0.182679
 H        -0.387509        -1.013448         1.209441
 H        -0.829842         0.014612        -0.322532
 H        -0.028878        -1.505292        -0.262044
 H         1.579995         1.486163         1.965592
 H         2.355490        -0.272131         2.049965
 H         4.926047         0.632887         1.114642
 H         2.021295         3.119910        -0.444553
 H         3.406403         2.576836        -1.343910
 H         1.747835         0.760293        -2.333101
 H         3.965130        -0.124550        -1.369247
