19
Iteration:   914
 C        -0.090162        -0.517122         0.043202
 C         1.364784         0.016088         0.067101
 C         2.063372         0.861254         1.259367
 C         3.291655         1.179607         0.421551
 O         4.563273         1.254679         1.023513
 C         2.603234         2.204703        -0.652652
 C         1.959586         0.822675        -1.184769
 C         3.130909         0.005867        -0.649424
 O         2.306439        -1.088525        -0.053361
 H        -0.190200        -1.467978         0.624556
 H        -0.768704         0.335367         0.268313
 H        -0.311010        -0.511676        -1.090967
 H         1.715818         1.781125         1.723617
 H         2.420831         0.112173         2.039686
 H         4.426882         2.028176         1.572056
 H         1.954099         3.065368        -0.374194
 H         3.264062         2.459343        -1.480500
 H         1.480606         0.745327        -2.217467
 H         4.170910        -0.339668        -1.043502
