19
Iteration:  3381charge 0 multiplicity 1
 C        -0.026513        -0.531017         0.270921
 C         1.373633        -0.051168         0.114827
 C         2.069366         0.711090         1.285373
 C         3.255637         1.163988         0.374144
 O         4.559803         1.424312         1.002589
 C         2.564172         2.221382        -0.543939
 C         1.876948         0.856590        -1.190731
 C         3.142060         0.049095        -0.757729
 O         2.400440        -1.132638        -0.318330
 H        -0.214074        -0.609538         1.368412
 H        -0.659654         0.230324        -0.136822
 H        -0.128135        -1.363594        -0.434586
 H         1.359356         1.585329         1.582954
 H         2.257908         0.017405         2.236999
 H         4.283281         1.861387         1.818096
 H         1.959765         2.990239        -0.082879
 H         3.345587         2.581710        -1.218601
 H         1.287040         0.842184        -2.126925
 H         4.046369        -0.095788        -1.407992
