19
Iteration:   373
 C        -0.084954        -0.343889         0.091045
 C         1.349852        -0.066546         0.114761
 C         2.013803         0.676036         1.167471
 C         3.301934         1.110456         0.403118
 O         4.464160         1.567529         1.090521
 C         2.769804         2.111063        -0.564328
 C         1.967227         0.860364        -1.100106
 C         3.142162        -0.054237        -0.783427
 O         2.297406        -1.139036        -0.190148
 H        -0.204942        -0.962161         1.050788
 H        -0.755229         0.572002         0.124326
 H        -0.442230        -0.887124        -0.771889
 H         1.630983         1.570751         1.460370
 H         2.231264         0.134319         2.067349
 H         4.620912         1.140001         1.897470
 H         2.298800         3.036526        -0.196269
 H         3.521075         2.458932        -1.281493
 H         1.449457         0.700831        -2.090572
 H         3.903904        -0.386273        -1.418696
