19
Iteration:  1848
 C        -0.068972        -0.512071         0.190023
 C         1.393904         0.037454         0.104812
 C         2.034584         0.851282         1.209993
 C         3.322411         1.047175         0.391737
 O         4.505607         1.519650         1.003459
 C         2.587184         2.140843        -0.534853
 C         1.981114         0.830315        -1.145878
 C         3.154162        -0.011999        -0.742018
 O         2.319538        -1.109219        -0.237174
 H        -0.029918        -1.561175         0.553688
 H        -0.685284         0.021111         0.849199
 H        -0.481781        -0.601544        -0.783420
 H         1.546918         1.723294         1.457050
 H         2.071259         0.048418         2.138201
 H         4.597677         0.998559         1.896751
 H         1.946121         2.958793        -0.247385
 H         3.351352         2.659045        -1.115101
 H         1.509226         0.804106        -2.195563
 H         4.079847        -0.455606        -1.314829
