19
Iteration:  1462
 C        -0.093410        -0.383690         0.090005
 C         1.371235        -0.062971         0.097811
 C         1.960947         0.711674         1.265729
 C         3.270700         1.172921         0.391753
 O         4.556827         1.475021         0.930430
 C         2.675844         2.096514        -0.620389
 C         1.929736         0.849590        -1.076425
 C         3.160383         0.035952        -0.686610
 O         2.400253        -1.107937        -0.148873
 H        -0.381282        -1.410091         0.400469
 H        -0.857624         0.279848         0.717170
 H        -0.505294        -0.490243        -1.030112
 H         1.369053         1.480567         1.712736
 H         2.184660        -0.058817         2.049830
 H         4.614589         1.102701         1.903351
 H         2.004567         2.871286        -0.101086
 H         3.499163         2.339611        -1.329880
 H         1.281387         0.892603        -1.991418
 H         4.138544        -0.165185        -1.192591
