19
Iteration:  3065
 C        -0.028452        -0.556717         0.227224
 C         1.411207         0.018272         0.069091
 C         2.092953         0.713573         1.292363
 C         3.240904         1.197034         0.398895
 O         4.476166         1.334356         0.958536
 C         2.584950         2.208811        -0.646752
 C         1.883524         0.878658        -1.188304
 C         3.167915         0.078232        -0.675058
 O         2.378996        -1.061376        -0.243390
 H        -0.058499        -1.562980         0.553756
 H        -0.530284         0.011476         1.035046
 H        -0.597371        -0.668953        -0.612944
 H         1.617483         1.564408         1.937078
 H         2.509464        -0.272468         1.914878
 H         4.342543         1.711082         1.896750
 H         1.900290         2.932561        -0.171137
 H         3.372125         2.605499        -1.315925
 H         1.324948         0.677206        -2.075236
 H         4.160559        -0.066384        -1.155323
