19
Iteration:  3356
 C        -0.090138        -0.523384         0.191985
 C         1.344114         0.016934         0.062139
 C         2.223975         0.534279         1.281087
 C         3.234896         1.183766         0.416820
 O         4.490162         1.508395         0.962040
 C         2.542861         2.136962        -0.630485
 C         1.907581         0.884674        -1.123429
 C         3.192252         0.039105        -0.692105
 O         2.356009        -1.043058        -0.232922
 H        -0.239315        -0.493344         1.242138
 H        -0.707623         0.263700        -0.133691
 H        -0.125207        -1.380198        -0.472555
 H         1.706616         1.383912         2.086111
 H         2.519121        -0.371653         1.818160
 H         4.431085         1.499974         1.864323
 H         1.912921         2.979604        -0.273169
 H         3.377835         2.401079        -1.286201
 H         1.308768         0.901174        -1.973798
 H         3.969521        -0.142100        -1.426382
