19
Iteration:   139charge 0 multiplicity 1
 C        -0.147943        -0.437652         0.210229
 C         1.287422         0.059299         0.032690
 C         1.959223         0.778038         1.239049
 C         3.266726         1.135559         0.377925
 O         4.453170         1.397414         1.070002
 C         2.802392         2.066222        -0.695611
 C         2.034458         0.882385        -1.180430
 C         3.188684        -0.011637        -0.608612
 O         2.356605        -1.080030        -0.216639
 H        -0.088616        -1.328594         0.961338
 H        -0.743558         0.414903         0.600788
 H        -0.827212        -0.633711        -0.806842
 H         1.499935         1.748420         1.569300
 H         2.261254         0.092688         2.104400
 H         4.545160         0.769137         1.899642
 H         2.272580         3.047422        -0.585221
 H         3.669827         2.288147        -1.381768
 H         1.600432         0.960047        -2.159494
 H         4.119544        -0.349593        -1.171143
