19
Iteration:  4415
 C        -0.102803        -0.453878         0.201276
 C         1.365043        -0.017427         0.121568
 C         2.104388         0.657773         1.232482
 C         3.305963         1.150370         0.358825
 O         4.553669         1.506456         0.947190
 C         2.625326         2.125955        -0.515430
 C         1.911771         0.896373        -1.077687
 C         3.102469        -0.001800        -0.694527
 O         2.368222        -1.118079        -0.283799
 H        -0.675708         0.152589         0.916549
 H        -0.572261        -0.447081        -0.782453
 H        -0.132956        -1.575148         0.424033
 H         1.561255         1.425968         1.755492
 H         2.418537        -0.109527         1.993540
 H         4.338985         1.990443         1.687609
 H         1.916283         2.862111        -0.131255
 H         3.220392         2.418960        -1.396791
 H         1.495804         0.687601        -1.972697
 H         3.898446        -0.155391        -1.441640
