19
Iteration:  2983charge 0 multiplicity 1
 C        -0.046222        -0.498191         0.183927
 C         1.371501         0.023189         0.056429
 C         2.183197         0.605150         1.298500
 C         3.257822         1.171342         0.392245
 O         4.548460         1.501851         1.005637
 C         2.545631         2.137925        -0.576861
 C         1.869258         0.879493        -1.156218
 C         3.087593         0.038594        -0.714559
 O         2.340010        -1.057168        -0.244381
 H        -0.016741        -0.750339         1.252414
 H        -0.721997         0.196451        -0.211025
 H        -0.221223        -1.332254        -0.578350
 H         1.656389         1.321266         1.959486
 H         2.612405        -0.415681         1.860741
 H         4.479686         1.148430         1.836933
 H         2.019609         2.953318        -0.083537
 H         3.214549         2.643885        -1.267397
 H         1.557370         0.736841        -2.213842
 H         3.936110        -0.146779        -1.351952
