19
Iteration:  4838
 C        -0.051269        -0.635592         0.259041
 C         1.326779        -0.002154         0.147218
 C         2.076365         0.731018         1.298321
 C         3.303192         1.172182         0.356200
 O         4.533713         1.435069         1.053788
 C         2.627379         2.148496        -0.695308
 C         1.892364         0.967787        -1.111499
 C         3.051352         0.081603        -0.779688
 O         2.344881        -1.053991        -0.240369
 H        -0.899674        -0.171730         0.733217
 H        -0.257994        -1.002328        -0.738406
 H         0.160148        -1.530737         0.964433
 H         1.497244         1.675665         1.719375
 H         2.357270         0.149480         2.216254
 H         5.280595         0.754867         0.813191
 H         2.138547         3.019409        -0.193980
 H         3.407145         2.360002        -1.433120
 H         1.525031         1.008388        -2.159448
 H         3.972438        -0.159450        -1.436717
