19
Iteration:  2223
 C        -0.010448        -0.408807         0.291050
 C         1.334682        -0.073967         0.009455
 C         2.076989         0.689669         1.192547
 C         3.329976         1.179780         0.452389
 O         4.405500         1.613209         1.101207
 C         2.660849         2.103154        -0.612803
 C         1.973314         0.870317        -1.176983
 C         3.158987        -0.020167        -0.773508
 O         2.311843        -1.160619        -0.275776
 H        -0.055376        -1.305865         0.883173
 H        -0.505874         0.261034         1.044040
 H        -0.454693        -0.694367        -0.655916
 H         1.458276         1.544072         1.485182
 H         2.373988        -0.082954         1.991406
 H         4.791691         0.939346         1.713919
 H         2.038431         2.838542        -0.015989
 H         3.396594         2.585167        -1.285686
 H         1.434606         0.734252        -2.125945
 H         3.709481        -0.380808        -1.642088
