19
Iteration:  1475
 C        -0.042025        -0.438628         0.056191
 C         1.383062        -0.027385         0.087873
 C         1.982105         0.746537         1.268807
 C         3.305508         1.094766         0.425194
 O         4.552649         1.498810         0.938608
 C         2.580790         2.149490        -0.517079
 C         1.921102         0.862395        -1.109064
 C         3.176300        -0.038866        -0.687591
 O         2.341204        -1.128154        -0.172687
 H        -0.169963        -1.402349         0.678927
 H        -0.489356         0.470430         0.619964
 H        -0.387845        -0.400799        -1.001765
 H         1.544160         1.632065         1.312986
 H         2.008948         0.279203         2.287327
 H         4.656962         1.036151         1.743993
 H         2.126270         3.135017        -0.266276
 H         3.266909         2.474934        -1.304960
 H         1.442557         0.770599        -2.076666
 H         3.978489        -0.355524        -1.351083
