19
Iteration:  2965charge 0 multiplicity 1
 C        -0.036125        -0.520753         0.212996
 C         1.366513         0.007365         0.096107
 C         2.086017         0.686756         1.207807
 C         3.333560         1.129732         0.368268
 O         4.498924         1.474187         1.008800
 C         2.511656         2.199717        -0.507141
 C         1.932983         0.848015        -1.102853
 C         3.201194         0.020663        -0.813066
 O         2.333709        -1.064675        -0.224672
 H        -0.274993        -0.836400         1.230387
 H        -0.795676         0.176647        -0.251216
 H        -0.240264        -1.360470        -0.463660
 H         1.692209         1.609344         1.592081
 H         2.463724        -0.078156         1.989394
 H         4.718640         0.822964         1.610287
 H         1.750683         2.829049         0.023065
 H         3.201226         2.731956        -1.201293
 H         1.290857         1.025190        -1.976782
 H         4.082505        -0.173452        -1.457505
