19
Iteration:  1009
 C        -0.123747        -0.337185         0.098433
 C         1.407422        -0.031553         0.091279
 C         2.084107         0.680693         1.265576
 C         3.234015         1.224988         0.407965
 O         4.439836         1.395360         1.007188
 C         2.723160         2.108034        -0.639895
 C         1.940582         0.790998        -1.151021
 C         3.176808        -0.034430        -0.722669
 O         2.341528        -1.066907        -0.142901
 H        -0.274411        -0.701734         1.185432
 H        -0.715253         0.508742        -0.133711
 H        -0.398805        -1.097340        -0.567022
 H         1.453617         1.499917         1.931736
 H         2.500207        -0.108717         1.911360
 H         4.364496         1.710268         2.003825
 H         2.118839         3.013144        -0.247603
 H         3.367556         2.515577        -1.532526
 H         1.527183         0.649754        -2.205448
 H         4.204597        -0.314340        -1.183718
