19
Iteration:    11
 C        -0.119117        -0.340417        -0.003018
 C         1.332940         0.023385        -0.038682
 C         2.056541         0.825652         1.310001
 C         3.285033         1.154030         0.416260
 O         4.538114         1.444959         1.023349
 C         2.693032         2.135697        -0.680211
 C         1.994021         0.787216        -1.129370
 C         3.196145        -0.164756        -0.626552
 O         2.250707        -1.125422        -0.096861
 H        -0.266130        -0.798682         0.940378
 H        -0.650301         0.579578         0.114533
 H        -0.565634        -0.898979        -0.878536
 H         1.662781         1.794506         1.572345
 H         2.226330         0.296519         2.225789
 H         4.338288         1.055422         1.956471
 H         2.248739         2.959428        -0.126566
 H         3.567976         2.464554        -1.255029
 H         1.437774         0.807176        -2.046905
 H         4.074554        -0.672244        -1.121111
