19
Iteration:   916
 C        -0.088718        -0.516943         0.047761
 C         1.354781         0.018681         0.073595
 C         2.077018         0.853759         1.249292
 C         3.271512         1.173690         0.432599
 O         4.560457         1.258981         1.030080
 C         2.599106         2.175734        -0.649758
 C         1.958992         0.833094        -1.199527
 C         3.136524         0.012770        -0.658049
 O         2.318170        -1.078543        -0.054311
 H        -0.192668        -1.375693         0.625616
 H        -0.772775         0.365196         0.321564
 H        -0.318702        -0.571940        -1.119705
 H         1.666545         1.848319         1.787736
 H         2.450750         0.050271         2.015937
 H         4.493290         1.999282         1.562395
 H         1.967188         3.054314        -0.489917
 H         3.291671         2.473274        -1.441448
 H         1.502770         0.767062        -2.193666
 H         4.102497        -0.363690        -1.035217
