19
Iteration:  4716charge 0 multiplicity 1
 C        -0.057382        -0.423695         0.215018
 C         1.361385        -0.018976         0.101365
 C         2.093276         0.682498         1.229815
 C         3.318405         1.162195         0.405908
 O         4.628810         1.376341         0.900464
 C         2.496817         2.168817        -0.517331
 C         1.815434         0.871194        -1.072654
 C         3.148665         0.001464        -0.735097
 O         2.399161        -1.083805        -0.232748
 H        -0.727799         0.279144        -0.164796
 H        -0.200346        -1.270176        -0.436213
 H        -0.274470        -0.887848         1.107361
 H         1.459994         1.519439         1.568130
 H         2.122629        -0.068407         1.941553
 H         4.598615         2.063425         1.541971
 H         1.796320         2.936811        -0.172940
 H         3.182209         2.639518        -1.203999
 H         1.334763         0.769273        -2.006355
 H         4.108293        -0.235680        -1.197151
