19
Iteration:   106charge 0 multiplicity 1
 C        -0.030129        -0.359789         0.259388
 C         1.346843         0.127614        -0.028167
 C         2.037028         0.807518         1.149943
 C         3.333510         1.135089         0.412497
 O         4.386845         1.467299         1.330545
 C         2.757245         2.040865        -0.691017
 C         1.975802         0.818858        -1.273990
 C         3.098597        -0.120422        -0.715601
 O         2.275885        -1.116994        -0.239794
 H        -0.009197        -1.150612         1.116533
 H        -0.672494         0.459889         0.630137
 H        -0.515525        -1.026187        -0.641347
 H         1.662312         1.754896         1.591818
 H         2.394447         0.166822         1.985981
 H         5.010095         0.774883         1.204973
 H         2.079643         2.920613        -0.509027
 H         3.640135         2.306585        -1.351592
 H         1.536584         0.947254        -2.251669
 H         3.992983        -0.399958        -1.388686
