19
Iteration:   487
 C        -0.145840        -0.439780        -0.043270
 C         1.293635         0.109679         0.074131
 C         2.076242         0.726678         1.350911
 C         3.246835         1.164514         0.435478
 O         4.514818         1.333682         0.948492
 C         2.680208         2.101384        -0.600871
 C         1.989843         0.830117        -1.166790
 C         3.168253        -0.012767        -0.641747
 O         2.343461        -1.038350        -0.076781
 H        -0.077536        -1.397388         0.469612
 H        -0.873225         0.231640         0.359410
 H        -0.381969        -0.669937        -1.166922
 H         1.747722         1.525499         1.923408
 H         2.314962        -0.123748         1.955265
 H         4.624492         2.015786         1.636319
 H         2.085504         2.975269        -0.302958
 H         3.453067         2.571701        -1.209832
 H         1.508790         0.515738        -2.143068
 H         4.112192        -0.376338        -1.169954
