19
Iteration:  1752charge 0 multiplicity 1
 C        -0.159380        -0.428843         0.108558
 C         1.366071        -0.045123         0.077515
 C         2.005587         0.671102         1.327793
 C         3.261480         1.102628         0.448672
 O         4.522892         1.496831         0.911056
 C         2.587830         2.169015        -0.591230
 C         1.980096         0.851763        -1.085524
 C         3.196290        -0.002743        -0.651355
 O         2.417966        -1.060222        -0.266278
 H        -0.459457        -0.660492         1.144735
 H        -0.612337         0.523536        -0.191944
 H        -0.541375        -1.284853        -0.529293
 H         1.525207         1.477432         1.899587
 H         2.398717        -0.099746         2.079102
 H         4.710227         1.082796         1.706375
 H         2.108335         3.084670        -0.252091
 H         3.414024         2.521972        -1.206501
 H         1.389079         0.527062        -2.082135
 H         4.119243        -0.215997        -1.314403
