19
Iteration:   646
 C        -0.090688        -0.399154         0.038776
 C         1.358696        -0.002313         0.105189
 C         2.087143         0.711541         1.318868
 C         3.225212         1.152668         0.425430
 O         4.513868         1.384599         1.036984
 C         2.718288         2.089654        -0.729551
 C         1.959512         0.813439        -1.140566
 C         3.136176         0.006320        -0.651868
 O         2.323894        -1.033455        -0.167163
 H        -0.581031        -1.048894         0.878405
 H        -0.643057         0.586812         0.060409
 H        -0.157390        -1.033195        -0.794153
 H         1.573205         1.504768         1.920980
 H         2.331127        -0.034541         2.090014
 H         4.487371         1.799858         1.940411
 H         1.959929         2.866034        -0.454310
 H         3.519572         2.495130        -1.392764
 H         1.327718         0.860905        -2.086716
 H         4.007426        -0.331567        -1.285737
