19
Iteration:  2312
 C        -0.066779        -0.567280         0.136668
 C         1.365663         0.014062         0.108687
 C         2.079743         0.720576         1.268920
 C         3.212984         1.234602         0.455174
 O         4.509795         1.474469         0.960371
 C         2.623012         2.186379        -0.584962
 C         1.946977         0.830497        -1.159367
 C         3.167745         0.039811        -0.745177
 O         2.332360        -1.096278        -0.187361
 H        -0.287837        -1.038106         1.083157
 H        -0.764459         0.386478         0.188447
 H        -0.267516        -1.245032        -0.692546
 H         1.816966         1.540530         1.953966
 H         2.458968        -0.228069         1.981916
 H         4.740443         0.708287         1.555395
 H         2.085150         3.067246        -0.135163
 H         3.376160         2.368160        -1.395947
 H         1.365465         0.830850        -2.101473
 H         4.006269        -0.185030        -1.378911
