19
Iteration:  4940charge 0 multiplicity 1
 C        -0.098239        -0.407521         0.276865
 C         1.403509        -0.000825         0.111510
 C         2.154062         0.594521         1.295814
 C         3.313399         1.155415         0.413318
 O         4.507268         1.544220         1.001808
 C         2.575859         2.044424        -0.494489
 C         1.880631         0.871756        -1.149156
 C         3.133181         0.000619        -0.819246
 O         2.377987        -1.129522        -0.343013
 H        -0.798958         0.437103         0.474321
 H        -0.456705        -0.940266        -0.640825
 H        -0.263026        -1.098073         1.124017
 H         1.483536         1.281474         1.806076
 H         2.518405        -0.164809         2.093026
 H         4.717038         2.426655         0.930631
 H         1.978033         2.823502         0.019542
 H         3.153801         2.527353        -1.369351
 H         1.188515         0.944055        -1.980815
 H         3.930904        -0.224873        -1.427911
