19
Iteration:  4476
 C        -0.059592        -0.505031         0.291597
 C         1.429364        -0.077380         0.096631
 C         2.089753         0.673414         1.245234
 C         3.283137         1.174823         0.336846
 O         4.486696         1.386472         0.968263
 C         2.564292         2.190411        -0.545509
 C         1.862507         0.908702        -1.141906
 C         3.156055         0.048790        -0.727964
 O         2.441791        -1.046031        -0.270730
 H        -0.627164         0.344554        -0.187033
 H        -0.508211        -1.323788        -0.288335
 H        -0.479114        -0.430328         1.295633
 H         1.635885         1.577009         1.776293
 H         2.472137        -0.043276         1.940998
 H         4.409951         0.971770         1.770107
 H         1.950739         3.054717        -0.236869
 H         3.195487         2.755568        -1.214220
 H         1.136912         0.660962        -2.066705
 H         4.018251        -0.227398        -1.426515
