19
Iteration:  3312
 C        -0.015772        -0.444932         0.190355
 C         1.423671        -0.100305         0.090246
 C         2.099493         0.683666         1.281857
 C         3.293234         1.145544         0.372593
 O         4.469022         1.600982         0.974003
 C         2.546939         2.149527        -0.491856
 C         1.889258         0.896181        -1.091097
 C         3.175065        -0.017247        -0.771786
 O         2.349829        -1.171898        -0.282031
 H        -0.160166        -1.094127         1.045129
 H        -0.681155         0.347054         0.326738
 H        -0.470035        -0.805983        -0.742581
 H         1.508174         1.742429         1.537180
 H         2.254626         0.191946         2.234436
 H         4.852630         0.873627         1.377636
 H         1.932182         2.955317        -0.050104
 H         3.250755         2.426245        -1.275995
 H         1.343894         0.789326        -1.983335
 H         4.085028        -0.286050        -1.319937
