19
Iteration:  3720
 C        -0.050490        -0.580972         0.235144
 C         1.332521         0.026944         0.115703
 C         2.071984         0.787264         1.213887
 C         3.235800         1.190539         0.348467
 O         4.482467         1.342610         1.049568
 C         2.576080         2.125930        -0.639494
 C         1.923971         0.837891        -1.192607
 C         3.171612         0.026874        -0.730451
 O         2.415127        -1.015655        -0.095451
 H         0.078426        -1.705424         0.591708
 H        -0.582423         0.196240         0.827744
 H        -0.492826        -0.646598        -0.825385
 H         1.501486         1.570616         1.772967
 H         2.306038        -0.007591         1.794908
 H         4.939545         2.097585         0.839070
 H         1.907625         2.996215        -0.462202
 H         3.332620         2.403819        -1.451333
 H         1.370075         0.837580        -2.180036
 H         4.097762        -0.197412        -1.182715
