19
Iteration:  1165
 C        -0.118454        -0.389999         0.050117
 C         1.361716        -0.028286         0.143036
 C         2.027376         0.698817         1.293711
 C         3.246706         1.211358         0.500025
 O         4.534097         1.516012         0.942824
 C         2.680975         2.120237        -0.641650
 C         1.970456         0.794227        -1.114725
 C         3.130736        -0.032821        -0.656959
 O         2.338634        -1.088473        -0.198267
 H        -0.644208        -0.682767         0.926294
 H        -0.513810         0.544986        -0.371793
 H        -0.313117        -1.068662        -0.835317
 H         1.529233         1.557407         1.850874
 H         2.331000        -0.184958         2.071786
 H         4.774409         0.753859         1.399912
 H         2.116142         2.933566        -0.120345
 H         3.513183         2.295791        -1.339551
 H         1.590016         0.613892        -2.055813
 H         4.016940        -0.326891        -1.131064
