19
Iteration:   200charge 0 multiplicity 1
 C        -0.118097        -0.315893        -0.073395
 C         1.287772         0.048684         0.047604
 C         2.051947         0.674617         1.373393
 C         3.264319         1.189391         0.455579
 O         4.556746         1.333918         1.014459
 C         2.683758         2.076983        -0.624620
 C         1.958271         0.761750        -1.125447
 C         3.149957         0.062115        -0.659361
 O         2.334573        -1.090713        -0.102520
 H        -0.450049        -0.792828         0.853057
 H        -0.653496         0.615746        -0.183695
 H        -0.290555        -1.017363        -0.769579
 H         1.589595         1.437033         2.019578
 H         2.302163        -0.238940         1.960647
 H         4.684037         2.369924         1.102292
 H         2.123047         2.930569        -0.266565
 H         3.505675         2.349746        -1.286819
 H         1.567744         0.437363        -2.166597
 H         3.983784        -0.207976        -1.381737
