19
Iteration:  2144
 C        -0.059525        -0.497119         0.084932
 C         1.338370         0.013355         0.121440
 C         2.036212         0.792462         1.266534
 C         3.315370         1.084224         0.387882
 O         4.533149         1.507455         0.932800
 C         2.590994         2.087705        -0.475801
 C         1.924832         0.844163        -1.080695
 C         3.133619         0.042846        -0.766829
 O         2.379889        -1.109936        -0.193524
 H        -0.359287        -0.883598         1.051341
 H        -0.628386         0.182107        -0.340803
 H        -0.077016        -1.335696        -0.628687
 H         1.619880         1.676286         1.676796
 H         2.075039         0.204969         2.084165
 H         4.731922         0.923912         1.625720
 H         2.071983         2.845435         0.105436
 H         3.180795         2.556680        -1.252491
 H         1.353726         0.837041        -2.001205
 H         4.025328        -0.024096        -1.411387
