19
Iteration:  3627
 C        -0.052213        -0.437683         0.126779
 C         1.428721        -0.055552         0.142449
 C         2.112092         0.754478         1.270868
 C         3.283119         1.142757         0.399070
 O         4.480076         1.500083         1.085813
 C         2.487505         2.156070        -0.599130
 C         1.936372         0.782421        -1.107894
 C         3.148549        -0.035063        -0.771233
 O         2.377668        -1.146313        -0.239966
 H        -0.260875        -0.813489         1.093031
 H        -0.520241         0.582474         0.077943
 H        -0.452896        -1.155533        -0.578745
 H         1.642386         1.691441         1.575037
 H         2.409439         0.169169         2.295985
 H         5.077160         1.954516         0.341230
 H         1.808104         2.869650        -0.126900
 H         3.070292         2.693280        -1.321669
 H         1.233283         0.711694        -1.911364
 H         4.099191        -0.308294        -1.315081
