19
Iteration:  4613
 C        -0.047410        -0.396473         0.253588
 C         1.342415        -0.035394         0.019629
 C         2.156444         0.581820         1.247128
 C         3.265401         1.081678         0.443798
 O         4.522997         1.526366         0.954853
 C         2.517296         2.144642        -0.580564
 C         1.964987         0.806421        -1.117842
 C         3.137018         0.069594        -0.760636
 O         2.327139        -1.074215        -0.230059
 H        -0.494512         0.192383         1.103844
 H        -0.545477        -0.303029        -0.731627
 H        -0.114843        -1.347413         0.641950
 H         1.774534         1.466772         1.779642
 H         2.506571        -0.254884         1.998578
 H         4.560165         1.708518         1.941182
 H         2.008930         3.101302        -0.407190
 H         3.309795         2.492229        -1.332615
 H         1.345267         0.456962        -2.017226
 H         3.971389        -0.022494        -1.452130
