19
Iteration:   886
 C        -0.084401        -0.479213         0.053950
 C         1.347582         0.050771         0.093131
 C         1.940291         0.839556         1.228374
 C         3.300746         1.128513         0.477396
 O         4.586239         1.372824         0.953300
 C         2.679517         2.056345        -0.581781
 C         1.972282         0.834450        -1.123997
 C         3.127546        -0.044225        -0.702409
 O         2.344706        -1.047314        -0.114342
 H        -0.039334        -1.441843         0.514380
 H        -0.827459         0.215559         0.489472
 H        -0.354746        -0.523066        -0.989762
 H         1.482526         1.831954         1.485437
 H         2.101909         0.281298         2.149070
 H         4.414357         1.958509         1.762083
 H         1.973785         2.871757        -0.365183
 H         3.474798         2.232670        -1.340657
 H         1.469398         0.837456        -2.049024
 H         3.970524        -0.359423        -1.223408
