19
Iteration:  1262
 C        -0.086109        -0.398764         0.307518
 C         1.389725        -0.047732        -0.002975
 C         2.037509         0.761450         1.135466
 C         3.352592         1.076242         0.414000
 O         4.435775         1.549639         1.184760
 C         2.679998         2.170917        -0.590382
 C         2.024452         0.820410        -1.238676
 C         3.179499        -0.096820        -0.831770
 O         2.281601        -1.119411        -0.213466
 H        -0.136857        -1.407062         0.996364
 H        -0.574397         0.475829         0.808366
 H        -0.660793        -0.371263        -0.704655
 H         1.521971         1.713667         1.463542
 H         2.023326         0.148171         1.995555
 H         4.580467         0.923114         1.816334
 H         2.041810         3.030806        -0.201060
 H         3.419931         2.506214        -1.355268
 H         1.396265         0.886231        -2.041513
 H         3.939551        -0.465561        -1.449182
