19
Iteration:  4787
 C        -0.079134        -0.414564         0.346494
 C         1.390138        -0.048792         0.101474
 C         2.110263         0.675833         1.220227
 C         3.268115         1.136754         0.388277
 O         4.484071         1.419319         1.063537
 C         2.533077         2.123911        -0.587229
 C         1.909659         0.843829        -1.164751
 C         3.182980        -0.013542        -0.806609
 O         2.414334        -1.065593        -0.282916
 H        -0.553903         0.538294         0.704513
 H        -0.638945        -0.548579        -0.603052
 H        -0.337022        -1.354207         0.891826
 H         1.632267         1.577188         1.519770
 H         2.407115        -0.029528         2.068252
 H         4.754248         2.288530         0.854820
 H         1.993763         2.928496        -0.060729
 H         3.273580         2.614208        -1.293916
 H         1.191457         0.781540        -2.040715
 H         4.083926        -0.352676        -1.316503
