19
Iteration:  1094
 C        -0.054497        -0.470403         0.213146
 C         1.333425         0.045879         0.023523
 C         2.042318         0.716349         1.203882
 C         3.310613         1.219992         0.409714
 O         4.459131         1.491319         1.119591
 C         2.794198         2.093425        -0.694899
 C         1.935671         0.828066        -1.109229
 C         3.142295        -0.061217        -0.696411
 O         2.289639        -1.081027        -0.232289
 H        -0.206057        -1.396216         0.943971
 H        -0.604093         0.388052         0.694020
 H        -0.615350        -0.582579        -0.716705
 H         1.497714         1.654787         1.583116
 H         2.157663        -0.009076         1.947694
 H         4.322244         1.231787         1.993862
 H         2.226115         2.988743        -0.590296
 H         3.546539         2.046170        -1.473103
 H         1.579121         0.699489        -2.196737
 H         4.026563        -0.293962        -1.389522
