19
Iteration:  3143
 C        -0.041917        -0.475666         0.242829
 C         1.398162        -0.019098         0.078398
 C         2.046721         0.588042         1.317004
 C         3.236790         1.158144         0.441236
 O         4.537030         1.410708         0.963399
 C         2.538433         2.146431        -0.543340
 C         1.880869         0.895412        -1.212939
 C         3.160674         0.092561        -0.741948
 O         2.432074        -1.090470        -0.270053
 H        -0.399742        -0.840019         1.138934
 H        -0.792070         0.352262         0.109800
 H        -0.272962        -1.093123        -0.518795
 H         1.583443         1.350415         2.093096
 H         2.586549        -0.145962         2.063953
 H         4.470570         2.250270         1.307125
 H         2.019877         3.026732        -0.169693
 H         3.158513         2.516094        -1.374024
 H         1.408573         0.757203        -2.211351
 H         4.057923        -0.180890        -1.322745
