19
Iteration:  2006
 C        -0.054526        -0.534829         0.116665
 C         1.362142         0.014161         0.130051
 C         2.078838         0.719693         1.272987
 C         3.290261         1.109369         0.338251
 O         4.513667         1.472081         0.971277
 C         2.583182         2.166827        -0.602502
 C         1.977963         0.886510        -1.122189
 C         3.153486         0.002850        -0.725260
 O         2.317921        -1.048494        -0.154279
 H        -0.056082        -1.407302         0.693498
 H        -0.909728         0.162020         0.251637
 H        -0.268572        -0.991903        -0.839422
 H         1.585438         1.570239         1.788970
 H         2.380798         0.177091         2.145656
 H         4.531688         0.960832         1.869262
 H         1.957055         2.913622        -0.077930
 H         3.172726         2.765860        -1.295973
 H         1.572766         0.801780        -2.091658
 H         3.992462        -0.346588        -1.226207
