19
Iteration:  4038
 C        -0.071948        -0.637036         0.190298
 C         1.354183         0.016491         0.124407
 C         2.017635         0.733707         1.246064
 C         3.252186         1.160455         0.354549
 O         4.498937         1.447708         1.005821
 C         2.670180         2.181311        -0.683473
 C         1.921081         0.861041        -1.103370
 C         3.108690         0.067735        -0.662064
 O         2.410268        -1.002737        -0.192915
 H        -0.076224        -0.768654         1.373573
 H        -0.819629         0.127514        -0.221250
 H        -0.242312        -1.553425        -0.327491
 H         1.463646         1.501622         1.818705
 H         2.411355         0.128192         1.944738
 H         5.058499         0.589698         0.960825
 H         1.998229         2.995983        -0.356489
 H         3.436545         2.465325        -1.425429
 H         1.243112         0.726925        -1.951446
 H         3.913661        -0.174823        -1.228920
