19
Iteration:   212
 C        -0.139808        -0.328667         0.024736
 C         1.390656         0.004510         0.095037
 C         1.957601         0.627384         1.288667
 C         3.295459         1.122794         0.499723
 O         4.590356         1.373856         1.060508
 C         2.626417         2.089834        -0.683597
 C         1.989529         0.851781        -1.112464
 C         3.154970        -0.033520        -0.628366
 O         2.338148        -1.053395        -0.187330
 H        -0.569852        -0.518433         1.035915
 H        -0.617710         0.577487        -0.299188
 H        -0.422398        -0.971204        -0.714707
 H         1.314328         1.453000         1.705448
 H         2.194185        -0.156677         2.089864
 H         4.828262         2.320599         0.953884
 H         2.051277         3.003288        -0.555909
 H         3.398496         2.312514        -1.439329
 H         1.487506         0.830765        -2.147515
 H         4.144547        -0.245714        -1.204826
