19
Iteration:  1580charge 0 multiplicity 1
 C        -0.090070        -0.416570         0.172389
 C         1.364065         0.039012         0.010651
 C         2.136154         0.623563         1.242274
 C         3.227264         1.139716         0.396008
 O         4.518608         1.461304         1.005322
 C         2.583775         2.182478        -0.584632
 C         1.946761         0.856619        -1.192858
 C         3.162274        -0.001394        -0.675466
 O         2.341873        -1.053016        -0.168164
 H        -0.277592        -0.845466         1.155442
 H        -0.771440         0.364910        -0.234313
 H        -0.170666        -1.317522        -0.554969
 H         1.569759         1.377001         2.071881
 H         2.310559        -0.302606         1.868151
 H         4.603489         1.165265         1.994399
 H         1.972806         3.047111        -0.134914
 H         3.339811         2.401823        -1.396960
 H         1.576339         0.682365        -2.237017
 H         4.075187        -0.425532        -1.161570
