19
Iteration:  1878charge 0 multiplicity 1
 C        -0.079431        -0.461306         0.092124
 C         1.362657         0.031696         0.130522
 C         2.073511         0.660793         1.279736
 C         3.302527         1.217723         0.395083
 O         4.541010         1.442153         0.990258
 C         2.557530         2.142083        -0.652028
 C         1.946623         0.824791        -1.121266
 C         3.177385         0.030069        -0.722799
 O         2.346398        -1.048850        -0.138185
 H        -0.086434        -1.405681         0.778423
 H        -0.904050         0.121248         0.666086
 H        -0.335226        -0.742797        -0.940999
 H         1.428385         1.320988         1.855746
 H         2.383594        -0.222101         1.750836
 H         4.431247         1.149879         1.836237
 H         1.869703         3.012967        -0.425674
 H         3.352643         2.409531        -1.441120
 H         1.449210         0.802038        -2.058112
 H         4.085706        -0.328117        -1.281323
