19
Iteration:   590charge 0 multiplicity 1
 C        -0.121367        -0.458898         0.133709
 C         1.320642         0.028837         0.074393
 C         1.953648         0.760410         1.268514
 C         3.276433         1.139621         0.406491
 O         4.570077         1.351395         1.036253
 C         2.698121         2.165474        -0.616195
 C         1.999731         0.834552        -1.144128
 C         3.200520        -0.021662        -0.655736
 O         2.327687        -1.099026        -0.232208
 H        -0.249211        -0.816594         1.205051
 H        -0.777192         0.430233        -0.143697
 H        -0.255070        -1.153594        -0.683222
 H         1.521642         1.766064         1.199597
 H         1.951574         0.281357         2.271626
 H         4.417826         1.915612         1.884906
 H         2.072222         3.062407        -0.340368
 H         3.546289         2.385564        -1.308101
 H         1.405691         0.804599        -2.073619
 H         4.032417        -0.350202        -1.292327
