19
Iteration:  3785
 C        -0.070143        -0.454269         0.263603
 C         1.364375        -0.003543         0.103981
 C         2.068145         0.626268         1.283520
 C         3.353439         1.127207         0.339853
 O         4.438266         1.645224         1.048792
 C         2.580412         2.117079        -0.599271
 C         1.947887         0.876214        -1.107496
 C         3.139836        -0.050155        -0.780007
 O         2.365888        -1.136667        -0.252113
 H        -0.403552        -0.766570         1.253235
 H        -0.625862         0.277193        -0.269880
 H        -0.460222        -1.355146        -0.277755
 H         1.568059         1.560225         1.819410
 H         2.386827        -0.123156         1.947964
 H         5.266523         1.096030         1.060042
 H         1.940141         2.942819        -0.245759
 H         3.249096         2.544318        -1.396814
 H         1.550806         0.885200        -2.157980
 H         4.010332        -0.305220        -1.338183
