19
Iteration:  4799
 C        -0.036985        -0.422129         0.302216
 C         1.344192         0.028109         0.118784
 C         2.088922         0.697666         1.236322
 C         3.304837         1.150571         0.305137
 O         4.439029         1.344231         1.064520
 C         2.551075         2.171075        -0.548376
 C         1.905916         0.894268        -1.194004
 C         3.165949         0.006949        -0.739357
 O         2.435167        -1.127219        -0.246209
 H        -0.631872         0.144546         1.093688
 H        -0.518898        -0.691663        -0.688545
 H         0.146543        -1.276341         1.009648
 H         1.383630         1.420396         1.613830
 H         2.408092         0.186812         2.212494
 H         4.969086         2.031062         0.592709
 H         1.785066         2.901685        -0.262324
 H         3.102981         2.533911        -1.474337
 H         1.546560         0.860535        -2.281866
 H         3.894633        -0.155803        -1.484794
