19
Iteration:  3437charge 0 multiplicity 1
 C        -0.007405        -0.594649         0.178233
 C         1.324198        -0.006624         0.110122
 C         2.109820         0.698900         1.353839
 C         3.222120         1.225741         0.408937
 O         4.527716         1.357069         0.968860
 C         2.588729         2.171078        -0.659978
 C         1.955083         0.880541        -1.110017
 C         3.145652         0.033080        -0.718938
 O         2.341727        -0.994307        -0.218810
 H         0.160438        -1.611091         0.579766
 H        -0.783605        -0.021962         0.644130
 H        -0.517068        -0.852840        -0.721192
 H         1.424233         1.358362         1.960429
 H         2.566746        -0.169931         2.059428
 H         4.411786         2.152299         1.406180
 H         1.969608         3.059882        -0.593832
 H         3.277327         2.371302        -1.494200
 H         1.408474         0.940268        -2.121454
 H         4.073048        -0.173309        -1.276123
