19
Iteration:  2405
 C        -0.086459        -0.463905         0.143072
 C         1.304911         0.007630         0.066318
 C         2.180939         0.617624         1.317424
 C         3.245669         1.169725         0.433121
 O         4.472645         1.503011         0.954101
 C         2.599660         2.158359        -0.591908
 C         1.940205         0.838789        -1.177431
 C         3.081772         0.020530        -0.671229
 O         2.432130        -1.056899        -0.222209
 H        -0.308610        -1.212286         1.049612
 H        -0.738135         0.374680         0.277268
 H        -0.292795        -1.009797        -0.857519
 H         1.783246         1.401450         2.020335
 H         2.472459        -0.290787         1.934632
 H         4.666665         1.050583         1.762685
 H         1.970496         2.996000        -0.372855
 H         3.400418         2.224072        -1.294836
 H         1.247174         0.924858        -2.047379
 H         4.081240        -0.022050        -1.230218
