19
Iteration:  1992charge 0 multiplicity 1
 C        -0.059797        -0.528732         0.135392
 C         1.368583        -0.014462         0.075681
 C         2.060691         0.793407         1.237985
 C         3.315506         1.203421         0.463565
 O         4.560894         1.488561         1.008440
 C         2.577988         2.092056        -0.535632
 C         1.863169         0.820030        -1.113735
 C         3.161358        -0.007523        -0.736482
 O         2.374167        -1.054556        -0.242525
 H        -0.343665        -1.063402         1.059566
 H        -0.673627         0.373236         0.215349
 H        -0.225982        -1.103933        -0.827965
 H         1.491142         1.589629         1.333586
 H         2.039715         0.087629         2.138465
 H         4.745141         0.806115         1.646586
 H         1.997252         2.968165        -0.162936
 H         3.321221         2.396603        -1.291438
 H         1.237688         0.753155        -2.048154
 H         3.964634        -0.290871        -1.449663
