19
Iteration:   264charge 0 multiplicity 1
 C        -0.085561        -0.408120         0.232582
 C         1.388165         0.097896         0.036408
 C         2.087009         0.673524         1.204757
 C         3.282008         1.157350         0.431423
 O         4.371150         1.423115         1.322567
 C         2.751810         2.150985        -0.755426
 C         1.933763         0.847998        -1.288483
 C         3.188827        -0.107274        -0.737443
 O         2.262126        -1.069252        -0.237048
 H        -0.078942        -0.872179         1.238260
 H        -0.923522         0.388406         0.330396
 H        -0.327135        -1.126815        -0.586247
 H         1.597778         1.495831         1.610308
 H         2.280567        -0.085007         1.929391
 H         5.333393         1.478331         0.876476
 H         2.332613         3.083116        -0.343716
 H         3.595188         2.366328        -1.432185
 H         1.272928         0.928487        -2.258503
 H         4.180436        -0.513443        -1.022312
