19
Iteration:  3833
 C        -0.067155        -0.434240         0.279617
 C         1.402587        -0.033072         0.085509
 C         2.104202         0.673109         1.240384
 C         3.316373         1.157987         0.373343
 O         4.521765         1.505477         0.987398
 C         2.541050         2.149600        -0.585489
 C         1.902521         0.799617        -1.135330
 C         3.172266        -0.003351        -0.763090
 O         2.400850        -1.099242        -0.275259
 H        -0.392978        -0.868996         1.249241
 H        -0.776306         0.326828        -0.131083
 H        -0.411705        -1.225759        -0.310697
 H         1.472065         1.426200         1.459465
 H         2.286134         0.060742         2.104074
 H         4.282476         1.730771         1.967054
 H         1.834550         2.837973        -0.089987
 H         3.229015         2.727393        -1.203232
 H         1.172730         0.867675        -1.904646
 H         4.050044        -0.347167        -1.293863
