19
Iteration:  1014charge 0 multiplicity 1
 C        -0.159694        -0.355006         0.095951
 C         1.393319        -0.040974         0.116031
 C         2.009926         0.748309         1.286188
 C         3.234569         1.202604         0.410756
 O         4.483231         1.391349         0.998931
 C         2.689274         2.117389        -0.657205
 C         1.967572         0.781566        -1.126805
 C         3.198721        -0.032026        -0.752255
 O         2.379596        -1.071999        -0.150339
 H        -0.450734        -0.735752         1.044638
 H        -0.712408         0.657356         0.015147
 H        -0.391556        -1.234641        -0.647176
 H         1.546502         1.409896         1.863389
 H         2.429276        -0.081135         1.887357
 H         4.422603         1.608075         1.879970
 H         2.228372         3.022851        -0.304185
 H         3.418480         2.536490        -1.293351
 H         1.547186         0.665941        -2.091323
 H         4.112016        -0.271429        -1.216985
