19
Iteration:  2261charge 0 multiplicity 1
 C        -0.120839        -0.478105         0.173953
 C         1.396515        -0.018822         0.121050
 C         2.116745         0.634120         1.304649
 C         3.237506         1.150113         0.426622
 O         4.471293         1.538381         0.968283
 C         2.653131         2.135454        -0.646884
 C         1.977206         0.839926        -1.174825
 C         3.126636         0.019439        -0.666809
 O         2.353475        -1.040735        -0.208356
 H        -0.033896        -1.558213         0.474260
 H        -0.844613         0.120707         0.721158
 H        -0.557536        -0.490278        -0.857266
 H         1.612743         1.444915         1.844343
 H         2.379803        -0.069807         2.031192
 H         4.711348         0.928200         1.592704
 H         2.036639         2.939917        -0.276702
 H         3.390005         2.548945        -1.355172
 H         1.548254         0.713216        -2.163430
 H         3.877029        -0.164962        -1.433476
