19
Iteration:  1209
 C        -0.085194        -0.475704         0.088383
 C         1.334892         0.033100         0.064770
 C         2.054347         0.726193         1.249714
 C         3.334961         1.147814         0.394665
 O         4.536387         1.476484         1.039493
 C         2.689810         2.156906        -0.607024
 C         1.984507         0.841869        -1.162368
 C         3.089921        -0.065100        -0.701278
 O         2.276094        -1.020162        -0.119125
 H        -0.202713        -1.100586         0.963494
 H        -0.735906         0.427017         0.028593
 H        -0.192243        -1.113787        -0.875052
 H         1.324442         1.418429         1.727593
 H         2.554882        -0.064432         2.029822
 H         4.643952         0.872891         1.709202
 H         1.873038         2.866220        -0.265659
 H         3.483640         2.462818        -1.317800
 H         1.592979         0.814632        -2.110609
 H         3.777989        -0.503072        -1.345692
