19
Iteration:  4324charge 0 multiplicity 1
 C        -0.037309        -0.534266         0.200512
 C         1.337877         0.013649         0.080080
 C         2.122862         0.699424         1.314094
 C         3.250263         1.167514         0.385655
 O         4.528162         1.462235         0.939134
 C         2.686554         2.191184        -0.613853
 C         1.912794         0.819943        -1.123937
 C         3.102811         0.049254        -0.690999
 O         2.316724        -1.073031        -0.242676
 H        -0.305451        -0.825686         1.231364
 H        -0.953272        -0.116136        -0.266695
 H         0.026070        -1.541756        -0.254944
 H         1.579470         1.569117         1.895597
 H         2.496467        -0.025662         2.037574
 H         4.204277         1.668104         1.788182
 H         2.198631         3.137435        -0.265860
 H         3.454627         2.233685        -1.390740
 H         1.227463         0.795182        -1.992858
 H         4.003828        -0.244791        -1.360943
