19
Iteration:  2650
 C        -0.048951        -0.533917         0.288592
 C         1.389006        -0.016747         0.028560
 C         2.079049         0.752123         1.260880
 C         3.297389         1.120348         0.426291
 O         4.475178         1.478484         1.030934
 C         2.633646         2.119930        -0.554834
 C         1.908669         0.896998        -1.187507
 C         3.130435        -0.024769        -0.815349
 O         2.372479        -1.054336        -0.288841
 H        -0.129062        -1.504735         0.699358
 H        -0.609267         0.021864         1.118697
 H        -0.590501        -0.600855        -0.623741
 H         1.448106         1.635629         1.756257
 H         2.145877         0.077637         2.113384
 H         4.553636         1.405122         2.051519
 H         2.105156         3.001118        -0.273967
 H         3.251465         2.568256        -1.342838
 H         1.537768         0.884036        -2.198829
 H         4.015359        -0.288223        -1.353321
