19
Iteration:  4077
 C        -0.036601        -0.472349         0.233043
 C         1.379511        -0.009853         0.065976
 C         2.051058         0.718790         1.278258
 C         3.321905         1.168097         0.351972
 O         4.495394         1.489918         1.013263
 C         2.571567         2.118388        -0.598726
 C         1.873302         0.871591        -1.139520
 C         3.166853        -0.008982        -0.787247
 O         2.395369        -1.074256        -0.233007
 H        -0.317512        -0.290756         1.189206
 H        -0.803908         0.067023        -0.215849
 H        -0.153505        -1.582021         0.074917
 H         1.543123         1.610676         1.585194
 H         2.312146        -0.062720         2.169849
 H         4.560340         0.965771         1.756815
 H         1.886085         2.781394        -0.068523
 H         3.133125         2.763481        -1.276060
 H         1.447114         0.542402        -2.048439
 H         4.171884        -0.315236        -1.315453
