19
Iteration:  4693
 C        -0.024227        -0.520507         0.274571
 C         1.371093        -0.060708         0.105117
 C         2.109678         0.760076         1.335612
 C         3.224473         1.198504         0.348263
 O         4.512144         1.197340         0.911671
 C         2.505691         2.218849        -0.616265
 C         1.900870         0.875790        -1.144699
 C         3.121172         0.098559        -0.747368
 O         2.452208        -1.004984        -0.204750
 H        -0.608903         0.337077         0.001019
 H        -0.313171        -1.249322        -0.482753
 H        -0.209340        -1.020756         1.151316
 H         1.520121         1.662047         1.610070
 H         2.251017         0.122751         2.160719
 H         4.567028         1.654785         1.802501
 H         2.004364         3.085720        -0.140083
 H         3.321007         2.575352        -1.229960
 H         1.598105         0.639756        -2.175425
 H         3.896726         0.014158        -1.486665
