19
Iteration:  1136
 C        -0.114386        -0.320569         0.195611
 C         1.359370         0.056947         0.004624
 C         2.102556         0.678083         1.198069
 C         3.296735         1.075890         0.435503
 O         4.399535         1.547280         1.089037
 C         2.619766         2.062126        -0.653049
 C         2.042971         0.802191        -1.172189
 C         3.174983        -0.064900        -0.680714
 O         2.326760        -1.062488        -0.193430
 H        -0.159987        -0.906430         1.149101
 H        -0.706411         0.645566         0.322748
 H        -0.437328        -1.013398        -0.619589
 H         1.711642         1.519992         1.649224
 H         2.254357        -0.089902         1.960600
 H         4.822649         0.816073         1.535693
 H         1.992639         2.824587        -0.186113
 H         3.341781         2.523152        -1.334460
 H         1.719275         0.669151        -2.243778
 H         4.011086        -0.463187        -1.308321
