19
Iteration:  2379charge 0 multiplicity 1
 C        -0.024051        -0.441111         0.272204
 C         1.385940        -0.056760         0.077764
 C         2.082449         0.617474         1.230293
 C         3.331858         1.132460         0.381749
 O         4.487829         1.588641         1.041429
 C         2.577828         2.216986        -0.566924
 C         1.966577         0.856656        -1.121777
 C         3.176908        -0.021422        -0.774745
 O         2.291357        -1.130949        -0.297754
 H        -0.384085        -0.774966         1.253307
 H        -0.646010         0.358101        -0.244849
 H        -0.187993        -1.227309        -0.477371
 H         1.542505         1.426972         1.705884
 H         2.154510        -0.250595         2.105474
 H         4.573626         1.123197         1.899183
 H         1.844885         2.986564        -0.197832
 H         3.363837         2.575914        -1.291971
 H         1.314928         0.823321        -1.980633
 H         3.949097        -0.258414        -1.468585
