19
Iteration:  3864
 C        -0.015606        -0.592819         0.180780
 C         1.377388         0.025129         0.086998
 C         2.093060         0.694551         1.301307
 C         3.283526         1.196120         0.383325
 O         4.526633         1.343475         0.971339
 C         2.583893         2.181647        -0.670506
 C         1.874580         0.867797        -1.133378
 C         3.116132         0.051766        -0.697000
 O         2.380726        -1.040054        -0.162023
 H        -0.124692        -1.413815         0.975853
 H        -0.738417         0.184661         0.516084
 H        -0.169378        -0.938687        -0.811116
 H         1.438927         1.616605         1.695855
 H         2.320830        -0.035897         2.050849
 H         4.565449         2.235980         1.232324
 H         1.879487         2.945581        -0.303486
 H         3.397991         2.556913        -1.320952
 H         1.173264         0.801271        -1.960023
 H         3.946230        -0.149850        -1.254247
