19
Iteration:  1995
 C        -0.070540        -0.539010         0.127204
 C         1.366729        -0.022120         0.081548
 C         2.081327         0.765699         1.260602
 C         3.317169         1.202702         0.429028
 O         4.551338         1.478891         1.001011
 C         2.563141         2.111900        -0.552334
 C         1.885621         0.843713        -1.114577
 C         3.166427        -0.018434        -0.737378
 O         2.362811        -1.033970        -0.226484
 H        -0.276341        -1.066666         0.993212
 H        -0.789165         0.308984         0.283488
 H        -0.123879        -0.998171        -0.835854
 H         1.450853         1.712277         1.286610
 H         2.082348         0.109064         2.094701
 H         4.697960         0.853849         1.697583
 H         1.958745         2.889018        -0.038036
 H         3.343550         2.347394        -1.256465
 H         1.351134         0.708103        -2.010456
 H         3.923653        -0.356975        -1.348657
