19
Iteration:  1980charge 0 multiplicity 1
 C        -0.032418        -0.457579         0.171060
 C         1.381673        -0.061786         0.079290
 C         1.943679         0.768504         1.256245
 C         3.264758         1.129781         0.440905
 O         4.548515         1.531257         1.040284
 C         2.643278         2.110238        -0.600649
 C         1.890929         0.853130        -1.090053
 C         3.103294         0.058366        -0.767542
 O         2.413497        -1.151362        -0.257711
 H        -0.245709        -0.905521         1.215504
 H        -0.652193         0.394775        -0.058400
 H        -0.427343        -1.222004        -0.579652
 H         1.464388         1.556641         1.656409
 H         2.299245         0.155057         2.185423
 H         4.970979         0.664664         1.510782
 H         2.055034         2.970461        -0.191722
 H         3.332090         2.398077        -1.431469
 H         1.356407         0.878516        -2.110592
 H         4.072734        -0.021322        -1.400231
