19
Iteration:  4966
 C        -0.040157        -0.582531         0.242885
 C         1.388023         0.021028         0.107085
 C         2.136700         0.614741         1.315721
 C         3.349573         1.140832         0.358447
 O         4.517053         1.511228         1.045507
 C         2.590343         2.226020        -0.543998
 C         1.917358         0.891575        -1.141480
 C         3.063059         0.007244        -0.759382
 O         2.270452        -1.070485        -0.279890
 H        -0.788762         0.102756         0.674584
 H        -0.493078        -0.947692        -0.678206
 H         0.014098        -1.488562         0.834689
 H         1.565344         1.363977         1.864065
 H         2.521182        -0.098771         1.951492
 H         5.083789         1.956587         0.463305
 H         2.206263         3.122499        -0.099471
 H         3.139482         2.616276        -1.392735
 H         1.401285         0.607986        -2.082572
 H         3.847188        -0.357503        -1.542678
