19
Iteration:  2297charge 0 multiplicity 1
 C        -0.061011        -0.509382         0.115079
 C         1.354107        -0.001765         0.108670
 C         2.052053         0.744995         1.306219
 C         3.345123         1.083339         0.369691
 O         4.557031         1.503768         0.963061
 C         2.573342         2.100529        -0.559567
 C         1.896244         0.873043        -1.083862
 C         3.113757         0.009478        -0.713005
 O         2.378662        -1.032816        -0.210389
 H        -0.237523        -1.313166         0.859002
 H        -0.792456         0.228712         0.302429
 H        -0.140689        -0.996003        -0.881901
 H         1.354419         1.652652         1.378399
 H         2.168528         0.222568         2.204049
 H         4.795691         0.901884         1.599957
 H         1.882366         2.840832        -0.145163
 H         3.236136         2.628251        -1.222787
 H         1.449531         0.713226        -2.077578
 H         3.992943        -0.258432        -1.388830
