19
Iteration:   828
 C        -0.027829        -0.291733         0.197816
 C         1.397366        -0.029677        -0.017160
 C         2.053578         0.738399         1.241902
 C         3.316599         1.083588         0.396125
 O         4.459077         1.457249         1.186975
 C         2.657404         2.057666        -0.657330
 C         1.976138         0.795906        -1.233586
 C         3.118385        -0.047665        -0.735836
 O         2.331477        -1.105963        -0.234593
 H        -0.162325        -0.648847         1.145474
 H        -0.564286         0.651260         0.376617
 H        -0.596214        -1.135826        -0.366824
 H         1.530209         1.758484         1.676423
 H         2.412393         0.170150         2.219477
 H         4.057260         2.034614         1.813640
 H         1.971597         2.850857        -0.332035
 H         3.259265         2.651100        -1.337546
 H         1.490785         0.596658        -2.245247
 H         4.016081        -0.482862        -1.306403
