19
Iteration:  1591charge 0 multiplicity 1
 C        -0.087374        -0.425430         0.086237
 C         1.315175         0.046502         0.093415
 C         2.090550         0.590450         1.322307
 C         3.258885         1.131011         0.462218
 O         4.472297         1.460939         0.944453
 C         2.651845         2.130572        -0.652312
 C         1.969398         0.893959        -1.131059
 C         3.142790         0.005378        -0.676096
 O         2.387923        -1.065025        -0.183371
 H        -0.305905        -0.882393         1.050839
 H        -0.939320         0.319076         0.076473
 H        -0.288214        -1.212920        -0.738630
 H         1.643065         1.586256         1.949059
 H         2.602944        -0.259090         1.887766
 H         4.547162         1.228993         1.842953
 H         1.916663         3.008108        -0.501163
 H         3.464491         2.633908        -1.280577
 H         1.387682         0.782810        -2.081382
 H         4.072197        -0.253515        -1.252322
