19
Iteration:  4701
 C        -0.061652        -0.524303         0.224111
 C         1.403653        -0.037489         0.107130
 C         2.012885         0.755449         1.319335
 C         3.242215         1.187851         0.362849
 O         4.556332         1.241087         0.898225
 C         2.518969         2.165381        -0.609461
 C         1.931572         0.879396        -1.107766
 C         3.175951         0.106239        -0.746308
 O         2.436199        -1.040783        -0.221134
 H        -0.656869         0.467136         0.126499
 H        -0.337208        -1.327543        -0.511059
 H        -0.299336        -0.747711         1.288366
 H         1.423314         1.590829         1.778358
 H         2.503195         0.184237         2.227922
 H         4.615806         1.742338         1.711964
 H         1.905145         2.791230         0.056410
 H         3.067850         2.619143        -1.510688
 H         1.178044         0.923527        -1.989274
 H         4.002858        -0.094520        -1.430594
