19
Iteration:  1828charge 0 multiplicity 1
 C        -0.056857        -0.497319         0.212967
 C         1.327602        -0.048892         0.003623
 C         1.998923         0.664759         1.270815
 C         3.275179         1.198184         0.474551
 O         4.474166         1.554810         1.017626
 C         2.770266         2.117805        -0.654695
 C         1.920820         0.866925        -1.132676
 C         3.106563        -0.010059        -0.723448
 O         2.358975        -1.065852        -0.225786
 H        -0.133991        -1.366426         0.806088
 H        -0.395403         0.185684         0.921324
 H        -0.653906        -0.614469        -0.686676
 H         1.420519         1.595823         1.537093
 H         2.228037        -0.154410         2.131794
 H         4.777077         0.757119         1.653378
 H         2.284737         3.049245        -0.369572
 H         3.475385         2.409723        -1.405029
 H         1.423265         0.807126        -2.207634
 H         4.090277        -0.229426        -1.277564
