19
Iteration:  4897
 C        -0.090190        -0.362142         0.277933
 C         1.349631        -0.026067         0.081078
 C         2.149524         0.624684         1.270949
 C         3.277656         1.229083         0.398698
 O         4.574104         1.420583         0.926573
 C         2.432009         2.167330        -0.520695
 C         1.876000         0.769863        -1.121900
 C         3.160434        -0.000972        -0.774633
 O         2.435518        -1.076765        -0.302857
 H        -0.740316         0.513262         0.161476
 H        -0.360434        -1.118393        -0.484208
 H        -0.160378        -0.901938         1.180904
 H         1.665060         1.299399         1.891608
 H         2.627817        -0.197144         1.847026
 H         4.328856         1.761382         1.792256
 H         1.935320         2.952225         0.001050
 H         3.094063         2.757414        -1.177660
 H         1.505013         0.593181        -2.112144
 H         4.053103        -0.230791        -1.238475
