19
Iteration:  1749charge 0 multiplicity 1
 C        -0.170904        -0.437556         0.099825
 C         1.383733        -0.039459         0.102000
 C         2.010175         0.664905         1.335468
 C         3.246109         1.098879         0.478843
 O         4.527323         1.495076         0.899280
 C         2.580678         2.182425        -0.621014
 C         1.967658         0.844672        -1.118562
 C         3.207192         0.019918        -0.648018
 O         2.398484        -1.056915        -0.261111
 H        -0.399176        -0.698088         1.119379
 H        -0.596098         0.429299        -0.255367
 H        -0.516522        -1.183470        -0.502360
 H         1.592669         1.378698         1.969505
 H         2.531076        -0.131546         2.139480
 H         4.689573         1.023442         1.850233
 H         2.133909         3.084618        -0.265962
 H         3.448968         2.436029        -1.217733
 H         1.462898         0.638380        -2.120585
 H         4.102127        -0.236069        -1.288077
