19
Iteration:  4730
 C        -0.066112        -0.475671         0.168290
 C         1.367103         0.014180         0.079166
 C         2.131153         0.608328         1.326678
 C         3.280842         1.107645         0.403799
 O         4.592573         1.487783         0.895794
 C         2.537895         2.118996        -0.510806
 C         1.949976         0.856641        -1.138994
 C         3.110710         0.039412        -0.723769
 O         2.298424        -1.103226        -0.220144
 H        -0.686907         0.405330        -0.000901
 H        -0.272131        -1.225351        -0.591429
 H        -0.390119        -0.676297         1.278732
 H         1.731889         1.479037         1.800410
 H         2.592558        -0.064884         2.086404
 H         4.475786         2.377729         1.437863
 H         2.109059         2.920807         0.106479
 H         3.192114         2.615043        -1.265856
 H         1.484209         0.778724        -2.119306
 H         3.729694        -0.252337        -1.610745
