19
Iteration:  3334charge 0 multiplicity 1
 C        -0.076407        -0.455042         0.168338
 C         1.393900        -0.056639         0.127653
 C         2.133121         0.637265         1.280401
 C         3.309290         1.158864         0.416074
 O         4.526965         1.603085         0.971101
 C         2.561332         2.111713        -0.538564
 C         1.904506         0.870481        -1.104699
 C         3.097313        -0.025699        -0.820250
 O         2.362763        -1.094993        -0.263459
 H        -0.379058        -0.812710         1.144668
 H        -0.755940         0.320498        -0.135454
 H        -0.097922        -1.169353        -0.660125
 H         1.539065         1.514566         1.928376
 H         2.416040        -0.155531         1.974190
 H         4.685126         1.309706         1.959867
 H         1.921726         2.750217         0.092702
 H         3.135913         2.604606        -1.323769
 H         1.432121         0.634568        -2.005100
 H         3.952356        -0.259021        -1.462924
