19
Iteration:  3967charge 0 multiplicity 1
 C        -0.104351        -0.424340         0.249079
 C         1.379594        -0.037474         0.072971
 C         2.115460         0.621613         1.226145
 C         3.264339         1.185910         0.458828
 O         4.460942         1.566929         0.974346
 C         2.593705         2.109361        -0.700094
 C         1.957090         0.761003        -1.135721
 C         3.143663         0.025766        -0.739119
 O         2.394788        -1.107536        -0.201311
 H        -0.220551        -1.461488         0.487920
 H        -0.332994         0.331924         1.032496
 H        -0.694103         0.020999        -0.643785
 H         1.617954         1.357104         1.878686
 H         2.442995        -0.213669         2.044511
 H         4.460074         1.573394         1.987169
 H         1.895317         2.826379        -0.236026
 H         3.282822         2.651386        -1.356092
 H         1.499338         0.582591        -2.133785
 H         4.123124        -0.168741        -1.432418
