19
Iteration:  1710charge 0 multiplicity 1
 C        -0.037882        -0.448203         0.116075
 C         1.334492         0.010636         0.094857
 C         2.120002         0.743294         1.266150
 C         3.328493         1.093499         0.348277
 O         4.480204         1.516650         1.069833
 C         2.616842         2.109845        -0.551912
 C         1.903958         0.873270        -1.133602
 C         3.199345        -0.034672        -0.808855
 O         2.295198        -1.111866        -0.193219
 H        -0.238384        -1.061291         1.048560
 H        -0.876911         0.304825         0.302163
 H        -0.140222        -1.216933        -0.766985
 H         1.604793         1.714952         1.562214
 H         2.277934         0.064449         2.008847
 H         4.588817         1.228446         1.976899
 H         2.119493         2.928081         0.054925
 H         3.194158         2.624090        -1.366268
 H         1.482549         1.045073        -2.165186
 H         3.957504        -0.526076        -1.465958
