19
Iteration:  1382
 C        -0.102242        -0.424810         0.279814
 C         1.343163        -0.019910         0.059339
 C         2.029827         0.619556         1.216640
 C         3.285925         1.152503         0.377186
 O         4.416814         1.521150         1.086675
 C         2.758605         2.083206        -0.641381
 C         1.949491         0.857259        -1.167569
 C         3.146214         0.004558        -0.663426
 O         2.359649        -1.037586        -0.300793
 H        -0.357621        -0.687578         1.326899
 H        -0.710936         0.489516         0.151847
 H        -0.379173        -1.157201        -0.520483
 H         1.436961         1.486331         1.687069
 H         2.263299        -0.045898         1.979587
 H         4.941941         0.767535         1.584424
 H         2.338562         3.049829        -0.357797
 H         3.527986         2.341483        -1.385060
 H         1.527528         0.742170        -2.136237
 H         4.011028        -0.233689        -1.245291
