19
Iteration:   476charge 0 multiplicity 1
 C        -0.068341        -0.472579        -0.045365
 C         1.350753         0.061998         0.037855
 C         2.121781         0.756079         1.297130
 C         3.280790         1.145469         0.451314
 O         4.589406         1.320948         0.981940
 C         2.617233         2.142181        -0.626454
 C         1.957873         0.869379        -1.148271
 C         3.126143        -0.021162        -0.605999
 O         2.265053        -1.037982        -0.066353
 H        -0.312778        -1.337647         0.580686
 H        -0.859443         0.214524         0.215063
 H        -0.275478        -0.770168        -1.166138
 H         1.516962         1.483926         1.679908
 H         2.411354         0.033167         2.034780
 H         4.318354         1.967402         1.772216
 H         1.972773         2.958195        -0.283501
 H         3.419044         2.310494        -1.346055
 H         1.353360         0.914588        -2.141733
 H         4.112289        -0.328313        -1.122833
