19
Iteration:  1224charge 0 multiplicity 1
 C        -0.120131        -0.444385         0.167331
 C         1.333709         0.052467         0.069056
 C         2.095579         0.698300         1.292730
 C         3.232844         1.165849         0.418404
 O         4.460528         1.443688         1.059087
 C         2.694749         2.105815        -0.717051
 C         2.009225         0.861998        -1.186645
 C         3.216992         0.040461        -0.672460
 O         2.276021        -1.088035        -0.204203
 H        -0.197156        -1.216076         0.922623
 H        -0.842583         0.328653         0.455236
 H        -0.411762        -1.003595        -0.675373
 H         1.790629         1.594306         1.797928
 H         2.242569        -0.152836         2.003673
 H         4.581234         0.794912         1.814396
 H         2.283065         3.051658        -0.447882
 H         3.452276         2.420376        -1.432915
 H         1.470142         0.646447        -2.206083
 H         4.245275        -0.161206        -1.178545
