19
Iteration:  2079
 C        -0.000167        -0.422244         0.263249
 C         1.392252         0.005875         0.045839
 C         2.045670         0.672574         1.202153
 C         3.290360         1.141214         0.383717
 O         4.418993         1.569951         1.112693
 C         2.606287         2.100328        -0.611128
 C         1.995728         0.838860        -1.190049
 C         3.175964        -0.024309        -0.793423
 O         2.323068        -1.097654        -0.229599
 H        -0.021993        -1.425404         0.791672
 H        -0.458099         0.365486         0.865928
 H        -0.681963        -0.618173        -0.623410
 H         1.556748         1.432633         1.713346
 H         2.294868        -0.115847         1.980248
 H         4.731838         0.862693         1.821838
 H         1.925608         2.869985        -0.208233
 H         3.228292         2.546760        -1.403246
 H         1.400969         0.949727        -2.112493
 H         4.036024        -0.412382        -1.374263
