19
Iteration:   859
 C        -0.124370        -0.412386         0.163102
 C         1.334403         0.011768         0.041091
 C         2.038420         0.684075         1.233238
 C         3.280861         1.189208         0.421856
 O         4.476550         1.416109         1.023081
 C         2.753962         2.138660        -0.707773
 C         2.031587         0.839892        -1.169441
 C         3.156557        -0.020783        -0.599977
 O         2.284264        -1.079319        -0.181483
 H        -0.117651        -1.330109         0.889154
 H        -0.694272         0.402917         0.621976
 H        -0.635564        -0.807512        -0.798406
 H         1.482848         1.505214         1.841789
 H         2.524187        -0.018008         1.999646
 H         4.205575         1.996139         1.824373
 H         2.056616         2.942272        -0.465228
 H         3.555785         2.321725        -1.407491
 H         1.657909         0.626314        -2.225993
 H         4.092365        -0.440271        -1.143737
