19
Iteration:  3283charge 0 multiplicity 1
 C        -0.100394        -0.521924         0.245684
 C         1.334464         0.028014         0.034228
 C         2.085086         0.595918         1.292618
 C         3.252725         1.236906         0.364157
 O         4.472838         1.504037         1.040053
 C         2.565739         2.131441        -0.619482
 C         1.961317         0.871823        -1.154126
 C         3.203401         0.070623        -0.761099
 O         2.381772        -1.031715        -0.179950
 H         0.060193        -1.483452         0.901249
 H        -0.718305         0.122007         1.005478
 H        -0.622024        -0.755149        -0.772937
 H         1.738721         1.301825         1.867177
 H         2.384440        -0.258854         1.978651
 H         4.927405         0.639579         0.966379
 H         1.936314         3.019836        -0.516738
 H         3.371085         2.309705        -1.345362
 H         1.484737         0.576277        -2.089215
 H         4.091162        -0.214308        -1.389289
