19
Iteration:  2836
 C        -0.041802        -0.491861         0.234894
 C         1.396574         0.031420         0.078559
 C         2.108385         0.625528         1.248100
 C         3.274418         1.109847         0.391859
 O         4.473610         1.475733         0.992376
 C         2.557281         2.148229        -0.643162
 C         1.963067         0.923359        -1.143943
 C         3.133170         0.047262        -0.743876
 O         2.355196        -1.096996        -0.230625
 H        -0.157107        -1.397757         0.820330
 H        -0.586775         0.306015         0.845172
 H        -0.407508        -0.683624        -0.768260
 H         1.784940         1.361323         2.073123
 H         2.452722        -0.174481         1.818501
 H         4.374058         1.346020         2.019261
 H         1.832159         2.865233        -0.174654
 H         3.229299         2.728391        -1.329133
 H         1.391660         0.774396        -2.077030
 H         4.092260        -0.155940        -1.304444
