19
Iteration:  2861charge 0 multiplicity 1
 C        -0.137103        -0.454755         0.216528
 C         1.419928        -0.058570         0.080159
 C         2.072135         0.615969         1.271682
 C         3.277725         1.179334         0.437827
 O         4.536043         1.541806         0.955059
 C         2.600857         2.116435        -0.595051
 C         1.894494         0.880288        -1.115293
 C         3.097511         0.101552        -0.743947
 O         2.408794        -1.144833        -0.288771
 H        -0.268093        -1.454651         0.625876
 H        -0.497559         0.155080         0.963151
 H        -0.586206        -0.420995        -0.751093
 H         1.490391         1.364695         1.967308
 H         2.402148        -0.132469         2.098318
 H         4.472105         1.336126         1.982576
 H         2.158881         3.062254        -0.386911
 H         3.456584         2.380469        -1.203897
 H         1.452772         0.644574        -2.098414
 H         4.055543        -0.093721        -1.301541
