19
Iteration:  4776
 C        -0.085026        -0.380789         0.249095
 C         1.414782        -0.098426         0.041249
 C         2.140820         0.669923         1.287125
 C         3.301528         1.133339         0.365782
 O         4.512507         1.497789         1.050545
 C         2.611619         2.081565        -0.609806
 C         1.890420         0.808828        -1.054157
 C         3.114679         0.063308        -0.810392
 O         2.321842        -1.123380        -0.269206
 H        -0.529963         0.534621         0.798801
 H        -0.517057        -0.707154        -0.726594
 H        -0.174309        -1.081857         1.179371
 H         1.587132         1.366854         1.917462
 H         2.334493        -0.248490         1.977653
 H         4.640730         2.528191         1.009696
 H         1.859313         2.762777        -0.158946
 H         3.318341         2.606149        -1.344988
 H         1.447929         0.747499        -2.121267
 H         3.978197        -0.087593        -1.472916
