19
Iteration:   232
 C        -0.120394        -0.330671         0.160642
 C         1.377720        -0.000112         0.029921
 C         2.028259         0.784807         1.193006
 C         3.295299         1.141481         0.410839
 O         4.443595         1.391198         1.134973
 C         2.710295         2.125038        -0.542057
 C         2.001095         0.805809        -1.170219
 C         3.200387        -0.072092        -0.675045
 O         2.297354        -1.178494        -0.265861
 H        -0.334003        -0.530961         1.220740
 H        -0.776490         0.476301        -0.184985
 H        -0.464291        -1.144477        -0.405698
 H         1.546380         1.696397         1.447909
 H         2.183220         0.207975         2.101512
 H         4.669461         2.224654         0.827619
 H         2.185560         2.913865        -0.005371
 H         3.442895         2.634395        -1.165873
 H         1.583312         0.758595        -2.240592
 H         4.153981        -0.352306        -1.193740
