19
Iteration:   946charge 0 multiplicity 1
 C        -0.049087        -0.388997         0.192580
 C         1.330429         0.014026         0.052360
 C         1.937042         0.728485         1.249600
 C         3.259626         1.078371         0.394373
 O         4.490391         1.386039         1.031448
 C         2.742425         2.165745        -0.646648
 C         1.988070         0.840715        -1.145650
 C         3.205657         0.032780        -0.686377
 O         2.332973        -1.125438        -0.187864
 H        -0.344974        -0.970855         1.130474
 H        -0.650819         0.519891         0.316695
 H        -0.275636        -1.131133        -0.630072
 H         1.440679         1.523729         1.615132
 H         2.099785        -0.076965         1.981692
 H         4.299227         2.209812         1.627191
 H         2.239540         3.133749        -0.439032
 H         3.343672         2.500646        -1.503789
 H         1.507823         0.594776        -2.146493
 H         4.157928        -0.380453        -1.182597
