19
Iteration:  4073charge 0 multiplicity 1
 C        -0.020475        -0.494463         0.226296
 C         1.393775         0.005405         0.084689
 C         2.027087         0.743684         1.255645
 C         3.322709         1.157477         0.352530
 O         4.506202         1.484896         1.019303
 C         2.551467         2.102336        -0.582430
 C         1.895352         0.886987        -1.133653
 C         3.139610        -0.024893        -0.784664
 O         2.417019        -1.076198        -0.239719
 H        -0.340431        -0.317699         1.351106
 H        -0.807461         0.179292        -0.314466
 H        -0.137559        -1.576929         0.085927
 H         1.508799         1.718860         1.474311
 H         2.338774         0.083077         1.996679
 H         4.646443         0.795480         1.789646
 H         1.760437         2.766844        -0.136419
 H         3.146901         2.757709        -1.235341
 H         1.280974         0.606630        -2.052153
 H         4.082141        -0.313713        -1.271599
