19
Iteration:  3850
 C        -0.033130        -0.516990         0.198101
 C         1.364031        -0.047993         0.111369
 C         2.079231         0.774674         1.200419
 C         3.286771         1.134078         0.372427
 O         4.547310         1.411566         0.992839
 C         2.533752         2.122189        -0.555719
 C         1.879127         0.868131        -1.098951
 C         3.142668         0.035335        -0.778012
 O         2.394495        -1.088098        -0.193555
 H        -0.133025        -1.109253         1.156766
 H        -0.672445         0.361605         0.223223
 H        -0.333693        -1.222384        -0.686195
 H         1.606372         1.739221         1.830129
 H         2.357479         0.120130         2.062337
 H         4.405670         2.217205         1.664116
 H         2.019595         2.954209        -0.058286
 H         3.080202         2.548186        -1.433769
 H         1.613769         0.714013        -2.180730
 H         3.920223        -0.185774        -1.574650
