19
Iteration:    85charge 0 multiplicity 1
 C        -0.139088        -0.341556         0.185968
 C         1.366692         0.037647         0.067653
 C         2.003210         0.783575         1.200448
 C         3.388135         1.077004         0.394413
 O         4.413381         1.452767         1.235633
 C         2.748621         2.138355        -0.660002
 C         2.011998         0.748533        -1.169417
 C         3.195625        -0.067810        -0.703583
 O         2.230995        -1.087947        -0.250455
 H        -0.370574        -1.012534         1.022121
 H        -0.765373         0.536165         0.135082
 H        -0.457483        -1.067864        -0.701316
 H         1.488315         1.730704         1.348053
 H         2.150768         0.228090         2.124589
 H         5.310556         1.447549         0.714392
 H         2.195986         3.009075        -0.214783
 H         3.518521         2.526339        -1.388797
 H         1.602213         0.552858        -2.137362
 H         4.066528        -0.544984        -1.251205
