19
Iteration:  2376
 C        -0.026375        -0.440889         0.277018
 C         1.384439        -0.060092         0.090878
 C         2.082946         0.615366         1.214966
 C         3.337247         1.138241         0.388900
 O         4.489292         1.592465         1.054069
 C         2.572932         2.210731        -0.548109
 C         1.977766         0.859602        -1.127877
 C         3.152976        -0.050952        -0.775973
 O         2.301283        -1.141991        -0.312657
 H        -0.289976        -0.759319         1.240091
 H        -0.631196         0.323352        -0.306981
 H        -0.272312        -1.218482        -0.422904
 H         1.554370         1.514711         1.643062
 H         2.129316        -0.066999         2.053060
 H         4.607959         1.150098         1.855570
 H         1.890890         3.024613        -0.198454
 H         3.288784         2.670100        -1.302922
 H         1.290538         0.884194        -2.000897
 H         3.961763        -0.240301        -1.474192
