19
Iteration:  2409charge 0 multiplicity 1
 C        -0.098001        -0.493582         0.140099
 C         1.318762         0.005461         0.066470
 C         2.154817         0.632429         1.331760
 C         3.243945         1.151561         0.423127
 O         4.492974         1.506721         0.942800
 C         2.590319         2.186896        -0.597538
 C         1.931991         0.860468        -1.153643
 C         3.109937         0.040095        -0.695640
 O         2.433619        -1.098124        -0.201288
 H        -0.439292        -1.190006         0.857341
 H        -0.716031         0.436326         0.476203
 H        -0.185482        -0.915944        -0.844684
 H         1.712235         1.460345         1.925921
 H         2.399882        -0.230383         1.837614
 H         4.661967         0.948331         1.806980
 H         1.917251         3.039508        -0.402190
 H         3.476167         2.307344        -1.261257
 H         1.249086         0.916421        -2.021275
 H         4.037908        -0.151760        -1.229251
