19
Iteration:  4305charge 0 multiplicity 1
 C        -0.068467        -0.474377         0.195520
 C         1.399285        -0.003826         0.116764
 C         2.155904         0.667454         1.269316
 C         3.280308         1.181124         0.415878
 O         4.508666         1.497914         0.968167
 C         2.571297         2.147179        -0.630553
 C         1.895416         0.878884        -1.155185
 C         3.161987        -0.024951        -0.747063
 O         2.327258        -1.086961        -0.189082
 H        -0.446192        -0.904470         1.120056
 H        -0.558571         0.470174        -0.050852
 H        -0.308341        -1.345122        -0.535434
 H         1.640861         1.463950         1.759463
 H         2.469736        -0.138797         1.920319
 H         4.472631         1.581632         1.970157
 H         1.789176         2.792161        -0.178170
 H         3.232133         2.484325        -1.431975
 H         1.475122         0.712921        -2.066630
 H         4.070919        -0.392866        -1.362613
