19
Iteration:  2560
 C        -0.124803        -0.444447         0.132098
 C         1.362479        -0.029343         0.132684
 C         2.132940         0.519221         1.380324
 C         3.265056         1.192705         0.447682
 O         4.517829         1.553789         0.907417
 C         2.579385         2.083760        -0.545729
 C         1.929279         0.927697        -1.177127
 C         3.140949         0.076220        -0.728479
 O         2.378711        -1.080611        -0.249607
 H        -0.365261        -0.762094         1.153323
 H        -0.813119         0.351930        -0.239665
 H        -0.233164        -1.313868        -0.548631
 H         1.463298         1.374117         1.964140
 H         2.485496        -0.199049         2.106728
 H         4.835321         0.757132         1.532723
 H         2.063431         3.023553        -0.399962
 H         3.181214         2.556028        -1.348095
 H         1.455307         0.769489        -2.171378
 H         4.118845        -0.276798        -1.086314
