19
Iteration:  2957charge 0 multiplicity 1
 C        -0.068565        -0.545998         0.201623
 C         1.386750        -0.024119         0.114353
 C         2.080020         0.700658         1.267287
 C         3.265984         1.122706         0.334825
 O         4.514240         1.484218         1.020240
 C         2.556153         2.176822        -0.515321
 C         1.929956         0.901540        -1.105199
 C         3.160903        -0.015011        -0.812366
 O         2.393242        -1.057266        -0.268755
 H        -0.250024        -0.736509         1.305654
 H        -0.766292         0.415370        -0.108877
 H        -0.171461        -1.412671        -0.456208
 H         1.489194         1.606129         1.603782
 H         2.199938         0.195511         2.095436
 H         4.794180         0.706210         1.486649
 H         1.932696         2.897516         0.031698
 H         3.093037         2.865860        -1.192863
 H         1.293214         0.865613        -2.016998
 H         4.094396        -0.279043        -1.410434
