19
Iteration:   653
 C        -0.092994        -0.404064         0.079090
 C         1.350679        -0.004848         0.118312
 C         2.071796         0.722430         1.274104
 C         3.291549         1.216235         0.457824
 O         4.513021         1.408083         1.049424
 C         2.727408         2.064068        -0.643521
 C         1.954460         0.802128        -1.169565
 C         3.122630        -0.014534        -0.696347
 O         2.312422        -1.088563        -0.201224
 H        -0.427398        -1.007740         0.898652
 H        -0.773241         0.483504         0.024667
 H        -0.531450        -0.829027        -0.969937
 H         1.605351         1.624507         1.598485
 H         2.460982         0.101610         2.094376
 H         4.296604         1.952712         1.923689
 H         2.102811         2.958328        -0.382797
 H         3.576094         2.381602        -1.271460
 H         1.340591         0.597280        -2.030585
 H         3.998442        -0.205842        -1.304258
