19
Iteration:  4884
 C        -0.075947        -0.513123         0.254912
 C         1.359377         0.031585         0.116328
 C         2.143958         0.647921         1.308346
 C         3.284550         1.115219         0.381381
 O         4.566100         1.459136         0.918390
 C         2.522548         2.203016        -0.551431
 C         1.929034         0.864048        -1.157785
 C         3.150497         0.074432        -0.777043
 O         2.381874        -1.109198        -0.247348
 H        -0.678741         0.400943         0.272507
 H        -0.447132        -1.094176        -0.580635
 H        -0.368896        -0.939380         1.276157
 H         1.626551         1.514218         1.779555
 H         2.283961        -0.221214         2.062794
 H         4.696264         1.394507         1.897214
 H         1.572626         2.654096        -0.240461
 H         3.199398         2.752173        -1.262323
 H         1.276192         0.749279        -2.071890
 H         3.872347        -0.133025        -1.584745
