19
Iteration:  4348charge 0 multiplicity 1
 C        -0.024297        -0.631559         0.270516
 C         1.315080        -0.044175         0.081881
 C         2.008312         0.763891         1.212307
 C         3.312936         1.150272         0.401212
 O         4.602783         1.367205         0.981500
 C         2.608489         2.147679        -0.613423
 C         1.937907         0.926272        -1.140448
 C         3.088060         0.033959        -0.741980
 O         2.372356        -0.993191        -0.220310
 H        -0.379466        -0.527923         1.266184
 H        -0.797604        -0.168241        -0.333941
 H        -0.192371        -1.742753         0.023831
 H         1.429643         1.684458         1.472752
 H         2.203720         0.242338         2.148565
 H         4.416423         1.955489         1.834659
 H         1.976467         2.966626        -0.234215
 H         3.392901         2.395347        -1.307482
 H         1.455525         1.105045        -2.020231
 H         3.900829        -0.300473        -1.485971
