19
Iteration:   813charge 0 multiplicity 1
 C        -0.099538        -0.306115         0.210109
 C         1.390235        -0.042072         0.057879
 C         2.059104         0.736667         1.139495
 C         3.287710         1.123266         0.383507
 O         4.431422         1.431484         1.092885
 C         2.651546         2.101990        -0.600150
 C         1.987939         0.826895        -1.135806
 C         3.212816        -0.065901        -0.744413
 O         2.357343        -1.143145        -0.197681
 H        -0.437650        -0.559658         1.355250
 H        -0.446348         0.659379        -0.120011
 H        -0.455701        -1.034873        -0.475685
 H         1.436932         1.602064         1.384502
 H         2.156009         0.092819         2.013409
 H         4.125924         2.019183         1.900499
 H         2.069322         2.860146        -0.088915
 H         3.410326         2.427107        -1.311757
 H         1.549457         0.844760        -2.121933
 H         4.056714        -0.279389        -1.398487
