19
Iteration:  4860
 C         0.024203        -0.601473         0.220803
 C         1.342690         0.028922         0.120851
 C         2.095085         0.735868         1.250919
 C         3.257218         1.169399         0.323092
 O         4.517481         1.486761         0.929792
 C         2.701343         2.212482        -0.484834
 C         1.784027         0.849603        -1.076529
 C         3.102017        -0.000266        -0.755928
 O         2.340011        -1.053517        -0.255417
 H        -0.735990         0.161642         0.414683
 H        -0.232685        -1.105523        -0.707562
 H        -0.060679        -1.292548         1.158836
 H         1.409707         1.587945         1.695356
 H         2.423815         0.025539         2.084335
 H         4.886623         0.797814         1.405856
 H         2.132243         3.078911        -0.068686
 H         3.451990         2.373246        -1.280546
 H         1.296091         0.889111        -2.093031
 H         3.986265        -0.420712        -1.395975
