19
Iteration:  4235
 C        -0.088125        -0.533222         0.242491
 C         1.331004         0.067175         0.034925
 C         2.134988         0.708837         1.297476
 C         3.310703         1.175573         0.416927
 O         4.444183         1.622002         1.024677
 C         2.663772         2.096411        -0.684850
 C         1.954171         0.818043        -1.112787
 C         3.135657        -0.071570        -0.712327
 O         2.301827        -1.087939        -0.213744
 H         0.056298        -1.630502         0.353492
 H        -0.622097        -0.008398         1.058567
 H        -0.525654        -0.507932        -0.682585
 H         1.638154         1.597490         1.843604
 H         2.353916        -0.177772         1.895679
 H         5.064376         0.968091         1.302242
 H         2.061628         2.984288        -0.406522
 H         3.421108         2.244031        -1.468608
 H         1.330881         0.893619        -2.085578
 H         3.932738        -0.279557        -1.376200
