19
Iteration:  2918
 C        -0.048509        -0.544698         0.219552
 C         1.351861         0.014582         0.079231
 C         2.065497         0.596196         1.292239
 C         3.301917         1.188756         0.395135
 O         4.472825         1.505672         1.021679
 C         2.617701         2.169124        -0.647145
 C         1.889658         0.913194        -1.111475
 C         3.166054         0.035140        -0.712308
 O         2.361909        -1.003887        -0.249540
 H         0.015698        -1.268322         1.015431
 H        -0.781229         0.147846         0.394124
 H        -0.482439        -1.058088        -0.661356
 H         1.500574         1.377604         1.787990
 H         2.487294        -0.341901         1.928991
 H         4.899577         0.636116         1.152966
 H         2.090359         3.002536        -0.194344
 H         3.315370         2.402435        -1.460341
 H         1.414519         0.714880        -2.070855
 H         4.010930        -0.340639        -1.240422
