19
Iteration:  3786
 C        -0.075302        -0.450263         0.263911
 C         1.366898        -0.004871         0.105742
 C         2.067290         0.622438         1.282182
 C         3.346015         1.129998         0.346182
 O         4.434713         1.646680         1.046108
 C         2.579655         2.113988        -0.605025
 C         1.945059         0.882889        -1.110683
 C         3.153356        -0.053790        -0.776623
 O         2.365341        -1.134210        -0.253499
 H        -0.397334        -0.777025         1.289713
 H        -0.625646         0.289224        -0.286320
 H        -0.438425        -1.349736        -0.254958
 H         1.604633         1.515112         1.811349
 H         2.403508        -0.122259         1.898735
 H         5.289367         1.066671         1.084034
 H         1.938068         2.939372        -0.247304
 H         3.272002         2.543685        -1.380994
 H         1.521474         0.873661        -2.150595
 H         3.991238        -0.304079        -1.322688
