19
Iteration:  4761
 C        -0.065548        -0.377081         0.234507
 C         1.353480         0.036594         0.129426
 C         2.170594         0.522036         1.290024
 C         3.299446         1.157461         0.432463
 O         4.533402         1.565676         0.996468
 C         2.565770         2.117500        -0.577515
 C         1.897823         0.854967        -1.127800
 C         3.137845        -0.041223        -0.719460
 O         2.308043        -1.157544        -0.304940
 H        -0.644713         0.478845         0.224197
 H        -0.458817        -0.873222        -0.638348
 H        -0.234958        -1.162785         0.979521
 H         1.683295         1.368763         1.757775
 H         2.670935        -0.177901         1.888608
 H         4.465056         2.476270         1.081401
 H         2.211935         3.090744        -0.199479
 H         3.241252         2.377768        -1.381934
 H         1.345573         0.737075        -2.023103
 H         3.903069        -0.340581        -1.501599
