19
Iteration:  3838
 C        -0.087381        -0.458393         0.258780
 C         1.390999        -0.034462         0.076139
 C         2.113920         0.681698         1.244061
 C         3.335487         1.191234         0.339709
 O         4.526555         1.477359         0.996498
 C         2.544274         2.133669        -0.533471
 C         1.891827         0.805114        -1.119536
 C         3.146855        -0.009843        -0.785910
 O         2.403109        -1.087369        -0.252833
 H        -0.283409        -0.818293         1.269686
 H        -0.756227         0.396324         0.049654
 H        -0.296179        -1.327476        -0.530801
 H         1.374943         1.649611         1.329343
 H         2.290180         0.095853         2.208892
 H         4.293417         1.867276         1.852149
 H         1.872801         2.831000        -0.016113
 H         3.171792         2.631523        -1.303774
 H         1.227754         0.768327        -2.041745
 H         4.166405        -0.293086        -1.290611
