19
Iteration:  2230
 C        -0.053986        -0.420441         0.281011
 C         1.379163        -0.021985         0.005583
 C         2.132611         0.629787         1.203308
 C         3.272301         1.191233         0.437698
 O         4.431350         1.616860         1.109897
 C         2.633566         2.127493        -0.629775
 C         1.980966         0.844930        -1.169215
 C         3.129241        -0.074205        -0.723635
 O         2.315162        -1.100288        -0.282498
 H         0.100396        -1.408556         0.815065
 H        -0.564349         0.164789         0.966028
 H        -0.675466        -0.635105        -0.627786
 H         1.499106         1.537995         1.659614
 H         2.383638        -0.117838         1.883786
 H         4.790365         0.797591         1.673309
 H         2.062294         2.969443        -0.281099
 H         3.331619         2.496202        -1.366966
 H         1.498858         0.740408        -2.141153
 H         3.899228        -0.369401        -1.491953
