19
Iteration:  3853charge 0 multiplicity 1
 C        -0.008800        -0.534545         0.192112
 C         1.366459        -0.035750         0.106541
 C         2.071864         0.784360         1.221693
 C         3.284387         1.117691         0.385231
 O         4.544861         1.402531         0.993291
 C         2.535685         2.136530        -0.589119
 C         1.878988         0.862492        -1.099931
 C         3.144945         0.054545        -0.760538
 O         2.391820        -1.085879        -0.184033
 H        -0.169604        -1.252784         1.078037
 H        -0.705396         0.318096         0.189302
 H        -0.381538        -1.107646        -0.599307
 H         1.624163         1.698156         1.807191
 H         2.389900         0.072989         1.937445
 H         4.455400         2.168964         1.517437
 H         1.998997         2.968782        -0.102574
 H         3.156637         2.575368        -1.403754
 H         1.564363         0.792732        -2.137729
 H         3.761388        -0.178756        -1.517168
