19
Iteration:  3959charge 0 multiplicity 1
 C        -0.072285        -0.404782         0.281257
 C         1.400167         0.005730         0.056575
 C         2.108720         0.605888         1.275638
 C         3.228515         1.204684         0.411629
 O         4.448785         1.530313         0.979698
 C         2.577520         2.093711        -0.698985
 C         1.948310         0.816092        -1.135001
 C         3.211620         0.011838        -0.701702
 O         2.398756        -1.107759        -0.218452
 H        -0.486309        -1.386950         0.527195
 H        -0.452715         0.063849         1.160800
 H        -0.565746        -0.072154        -0.686674
 H         1.612070         1.240258         1.900126
 H         2.438735        -0.295489         1.733779
 H         4.334480         1.731136         1.916380
 H         1.857273         2.874124        -0.455533
 H         3.235231         2.435837        -1.524791
 H         1.492123         0.630142        -2.114646
 H         4.106458        -0.224306        -1.323873
