19
Iteration:  3289
 C        -0.053641        -0.521607         0.248748
 C         1.314717         0.031590         0.074675
 C         2.072590         0.597461         1.265478
 C         3.269991         1.196952         0.405449
 O         4.474121         1.532879         1.023816
 C         2.602486         2.116706        -0.632803
 C         1.943802         0.823110        -1.165100
 C         3.163273         0.064756        -0.723192
 O         2.412234        -1.026854        -0.221570
 H        -0.075727        -1.340991         0.914097
 H        -0.751966         0.165628         0.709802
 H        -0.648505        -0.555066        -0.625228
 H         1.498156         1.411901         2.039770
 H         2.374490        -0.228170         1.873276
 H         5.039824         0.648502         1.014398
 H         1.813884         2.847045        -0.347166
 H         3.421508         2.442164        -1.303193
 H         1.413422         0.669655        -2.136858
 H         3.935103        -0.100910        -1.464424
