19
Iteration:  3202
 C        -0.067997        -0.494991         0.219229
 C         1.361299         0.046111         0.075649
 C         2.173258         0.557428         1.318506
 C         3.269455         1.192826         0.424034
 O         4.469284         1.473276         0.959599
 C         2.568627         2.171413        -0.590782
 C         1.938755         0.849685        -1.156345
 C         3.177686         0.028552        -0.759466
 O         2.327589        -1.037472        -0.227709
 H        -0.023413        -1.260919         1.071792
 H        -0.788191         0.343542         0.182985
 H        -0.235813        -1.287548        -0.662726
 H         1.643859         1.440881         1.932128
 H         2.636632        -0.234767         1.796038
 H         4.573487         1.666950         1.948786
 H         1.829119         2.963374        -0.261533
 H         3.231641         2.567566        -1.396241
 H         1.315249         0.586518        -2.043328
 H         3.972660        -0.212333        -1.462663
