19
Iteration:  4007
 C        -0.012943        -0.531359         0.131964
 C         1.357747        -0.009565         0.108451
 C         2.088263         0.721607         1.287166
 C         3.269499         1.129689         0.372050
 O         4.492862         1.589492         0.997085
 C         2.651183         2.140526        -0.617405
 C         1.941704         0.820340        -1.135546
 C         3.095160        -0.011500        -0.709297
 O         2.300290        -1.061060        -0.186962
 H         0.017536        -1.272280         0.982575
 H        -0.759965         0.087110         0.646218
 H        -0.312552        -1.052745        -0.731496
 H         1.481136         1.619479         1.676646
 H         2.396211         0.113488         2.101325
 H         5.082289         0.857945         1.178067
 H         2.021587         2.954052        -0.189257
 H         3.424788         2.562513        -1.273971
 H         1.358444         0.609273        -2.039620
 H         3.867916        -0.288119        -1.373618
