19
Iteration:  4409
 C        -0.097128        -0.483238         0.216014
 C         1.320838        -0.006101         0.105690
 C         2.100158         0.648709         1.241829
 C         3.274567         1.156111         0.385932
 O         4.570423         1.476692         0.960722
 C         2.613445         2.137565        -0.583703
 C         1.898918         0.823687        -1.077426
 C         3.120867         0.029440        -0.699374
 O         2.394160        -1.102973        -0.276724
 H        -0.570221         0.195691         0.975054
 H        -0.522452        -0.236938        -0.787476
 H        -0.100203        -1.523977         0.397654
 H         1.621275         1.483818         1.804518
 H         2.381754        -0.125113         1.939300
 H         4.368929         2.072445         1.769217
 H         2.101747         2.971963        -0.055066
 H         3.309982         2.655648        -1.277126
 H         1.316405         0.786774        -2.123766
 H         3.843012        -0.187107        -1.469635
