19
Iteration:   960
 C        -0.117771        -0.408543         0.237672
 C         1.387366        -0.066531         0.027151
 C         2.062873         0.757424         1.161483
 C         3.285290         1.182346         0.444784
 O         4.492365         1.450779         1.080190
 C         2.682900         2.087766        -0.619996
 C         1.993336         0.883418        -1.177043
 C         3.152720        -0.090867        -0.657761
 O         2.300440        -1.144942        -0.259170
 H        -0.202402        -0.726943         1.211470
 H        -0.686018         0.550961         0.001383
 H        -0.598261        -1.109412        -0.551710
 H         1.422285         1.687679         1.390178
 H         2.295534         0.210599         2.126188
 H         4.361945         2.140007         1.662996
 H         2.143384         2.919944        -0.220799
 H         3.578271         2.401486        -1.148323
 H         1.607860         0.935380        -2.165031
 H         3.991780        -0.301813        -1.251085
