19
Iteration:  3339
 C        -0.054950        -0.434392         0.174234
 C         1.373633        -0.027481         0.113181
 C         2.145585         0.619411         1.326852
 C         3.318090         1.133494         0.402551
 O         4.544828         1.599374         0.987374
 C         2.541707         2.120320        -0.544948
 C         1.874001         0.884158        -1.148009
 C         3.095822         0.002230        -0.805559
 O         2.370852        -1.107240        -0.250117
 H        -0.403976        -0.924001         1.132412
 H        -0.878356         0.210785        -0.285660
 H        -0.248079        -1.277770        -0.564538
 H         1.717049         1.322171         1.866289
 H         2.476335        -0.239174         1.997892
 H         4.565715         1.378529         1.874234
 H         1.930546         2.902343        -0.062374
 H         3.184621         2.563586        -1.326472
 H         1.380734         0.650909        -2.174707
 H         4.060449        -0.273321        -1.287816
