19
Iteration:  3439
 C         0.004305        -0.590678         0.172602
 C         1.325324        -0.000421         0.112477
 C         2.087945         0.691453         1.363362
 C         3.225737         1.236750         0.386522
 O         4.542414         1.364472         0.967180
 C         2.585040         2.156760        -0.646565
 C         1.953209         0.863983        -1.105855
 C         3.153925         0.034827        -0.718329
 O         2.333507        -0.996535        -0.223397
 H         0.085735        -1.608768         0.526252
 H        -0.831229        -0.018533         0.744128
 H        -0.484694        -0.837320        -0.763955
 H         1.500269         1.321475         1.918299
 H         2.513245        -0.098640         2.041055
 H         4.411739         2.223845         1.476269
 H         2.028532         3.089950        -0.527154
 H         3.274044         2.350904        -1.475250
 H         1.372324         0.877825        -2.141083
 H         4.050506        -0.146510        -1.279956
