19
Iteration:  2322charge 0 multiplicity 1
 C        -0.052233        -0.511800         0.212529
 C         1.367635        -0.030167         0.011559
 C         2.123577         0.671435         1.326893
 C         3.240915         1.227450         0.381319
 O         4.452841         1.482639         0.993785
 C         2.668856         2.178529        -0.643985
 C         1.908065         0.902799        -1.147553
 C         3.142892         0.014459        -0.677326
 O         2.345593        -1.082969        -0.193399
 H        -0.209550        -0.968033         1.161311
 H        -0.914923         0.276308        -0.041929
 H        -0.152589        -1.316467        -0.506168
 H         1.422718         1.224254         2.048356
 H         2.660872        -0.353251         1.776835
 H         4.653709         0.688042         1.457891
 H         2.071419         3.114209        -0.410999
 H         3.478422         2.621119        -1.301737
 H         1.338516         0.882380        -2.110247
 H         4.036571        -0.233364        -1.252330
