19
Iteration:  4306charge 0 multiplicity 1
 C        -0.072142        -0.483617         0.186924
 C         1.396500        -0.003594         0.119565
 C         2.161877         0.670314         1.271182
 C         3.280005         1.185437         0.412974
 O         4.501181         1.494038         0.970455
 C         2.568463         2.137320        -0.635774
 C         1.897450         0.892292        -1.143290
 C         3.163570        -0.031502        -0.745451
 O         2.323893        -1.082570        -0.191128
 H        -0.410038        -0.872259         1.147974
 H        -0.544745         0.450368        -0.046776
 H        -0.298162        -1.368806        -0.521837
 H         1.658635         1.442349         1.734706
 H         2.491596        -0.140269         1.931268
 H         4.508047         1.588993         1.920066
 H         1.806680         2.821122        -0.219156
 H         3.251319         2.487728        -1.416116
 H         1.497727         0.743439        -2.075554
 H         4.048729        -0.379309        -1.331400
