19
Iteration:  2387
 C        -0.054133        -0.458267         0.198705
 C         1.399668        -0.004463         0.062314
 C         2.109961         0.589562         1.309616
 C         3.272033         1.138676         0.406613
 O         4.480139         1.561142         1.008099
 C         2.601555         2.125601        -0.616028
 C         1.912130         0.865966        -1.106903
 C         3.202200         0.063470        -0.768642
 O         2.303958        -1.085845        -0.261617
 H        -0.398894        -0.733112         1.156951
 H        -0.741425         0.463104         0.150838
 H        -0.117170        -1.295345        -0.457666
 H         1.486168         1.326898         1.870853
 H         2.497227        -0.267802         1.810497
 H         4.486769         1.106629         1.821194
 H         1.958615         2.900379        -0.139758
 H         3.424442         2.494895        -1.294752
 H         1.499333         0.641495        -2.118772
 H         3.996864        -0.327570        -1.387741
