19
Iteration:  3102charge 0 multiplicity 1
 C        -0.048956        -0.657789         0.194543
 C         1.329434        -0.041675         0.088535
 C         2.094273         0.803421         1.288434
 C         3.299575         1.124974         0.383823
 O         4.571463         1.403858         0.994580
 C         2.648801         2.193427        -0.555466
 C         1.837064         0.877328        -1.100336
 C         3.132456         0.047958        -0.780002
 O         2.347278        -1.078798        -0.243560
 H         0.110658        -1.619615         0.772970
 H        -0.745729         0.176774         0.535759
 H        -0.463826        -0.705718        -0.872460
 H         1.440026         1.689983         1.555594
 H         2.188160         0.162896         2.061262
 H         4.442305         2.281287         1.574160
 H         2.119145         2.891407         0.127300
 H         3.374015         2.730895        -1.228150
 H         1.314919         0.853731        -2.123038
 H         3.971580        -0.090209        -1.467272
