19
Iteration:  1870charge 0 multiplicity 1
 C        -0.076943        -0.500263         0.107981
 C         1.381607         0.031076         0.034850
 C         2.118083         0.733071         1.323500
 C         3.264676         1.228741         0.375757
 O         4.549472         1.438059         1.013682
 C         2.561693         2.105926        -0.646511
 C         1.962097         0.826970        -1.148512
 C         3.165049         0.014075        -0.682669
 O         2.300304        -1.053008        -0.147220
 H        -0.009320        -1.499272         0.570083
 H        -0.729817         0.139187         0.640082
 H        -0.457309        -0.716420        -0.882554
 H         1.541819         1.415459         1.806201
 H         2.639089        -0.069555         2.059039
 H         4.423080         1.100453         1.873929
 H         1.944022         2.869241        -0.163900
 H         3.085162         2.671439        -1.407784
 H         1.420486         0.842821        -2.163239
 H         3.992362        -0.429890        -1.379555
