19
Iteration:  2272
 C        -0.041715        -0.487983         0.096893
 C         1.336820        -0.008775         0.066691
 C         2.080757         0.717501         1.271352
 C         3.288474         1.168370         0.394290
 O         4.518893         1.538283         0.943513
 C         2.605710         2.153997        -0.533187
 C         1.912581         0.876763        -1.055361
 C         3.103074        -0.028867        -0.765496
 O         2.373377        -1.126773        -0.161903
 H        -0.182835        -1.474734         0.610562
 H        -0.540355         0.156815         0.799122
 H        -0.478045        -0.535974        -0.936302
 H         1.414152         1.529287         1.523160
 H         2.338132         0.088828         2.048123
 H         4.722215         0.896021         1.670355
 H         2.020513         3.016016        -0.262188
 H         3.415151         2.384876        -1.237045
 H         1.489495         0.741633        -2.044818
 H         4.055781        -0.320312        -1.191916
