19
Iteration:  1138
 C        -0.119028        -0.306089         0.176067
 C         1.369474         0.047427         0.000136
 C         2.101053         0.652240         1.202684
 C         3.290778         1.078223         0.441713
 O         4.412903         1.542162         1.084089
 C         2.609426         2.077703        -0.662968
 C         2.049204         0.819330        -1.172180
 C         3.167219        -0.062123        -0.660440
 O         2.326694        -1.068498        -0.178294
 H        -0.109880        -0.932349         1.212773
 H        -0.786651         0.593998         0.274923
 H        -0.442817        -0.998879        -0.583262
 H         1.650934         1.528681         1.692463
 H         2.326887        -0.064750         1.904460
 H         4.835553         0.850013         1.512932
 H         1.975184         2.813606        -0.210022
 H         3.359784         2.449199        -1.385224
 H         1.686085         0.689789        -2.263535
 H         4.008771        -0.428974        -1.358240
