19
Iteration:  2530charge 0 multiplicity 1
 C        -0.020830        -0.429496         0.159623
 C         1.382183        -0.022236         0.061487
 C         2.150938         0.623116         1.257755
 C         3.296076         1.174692         0.362678
 O         4.501777         1.524514         1.006185
 C         2.554559         2.121839        -0.511199
 C         1.888715         0.895471        -1.120444
 C         3.128515         0.022256        -0.756354
 O         2.360524        -1.150174        -0.255733
 H        -0.240478        -0.719361         1.176400
 H        -0.698233         0.532173         0.195005
 H        -0.276902        -1.266901        -0.489524
 H         1.586594         1.484752         1.706503
 H         2.420987        -0.083995         1.996043
 H         4.423954         1.144520         1.876041
 H         1.876367         2.897282        -0.078235
 H         3.144211         2.611045        -1.361229
 H         1.343584         0.822142        -2.042730
 H         4.024277        -0.285268        -1.246808
