19
Iteration:   928charge 0 multiplicity 1
 C        -0.076082        -0.433040         0.066891
 C         1.323748         0.062028         0.090540
 C         2.057291         0.745619         1.279213
 C         3.242386         1.188731         0.416388
 O         4.512539         1.285869         1.034443
 C         2.634203         2.057994        -0.707293
 C         1.976053         0.845512        -1.202115
 C         3.156867        -0.004059        -0.665768
 O         2.376535        -0.987613        -0.095229
 H        -0.158052        -1.192938         0.779582
 H        -0.840054         0.323540         0.453108
 H        -0.414156        -1.011934        -0.860699
 H         1.382606         1.609612         1.805101
 H         2.288996        -0.056480         2.068290
 H         4.701642         2.075676         1.674804
 H         1.968870         2.878899        -0.418095
 H         3.541543         2.340969        -1.240073
 H         1.520270         0.744701        -2.153283
 H         3.970486        -0.287204        -1.280043
