19
Iteration:  3384charge 0 multiplicity 1
 C        -0.012355        -0.542028         0.279612
 C         1.376607        -0.057948         0.099451
 C         2.060053         0.734977         1.273731
 C         3.262553         1.164032         0.389716
 O         4.557521         1.415207         1.010937
 C         2.545461         2.191208        -0.551996
 C         1.882360         0.895166        -1.172278
 C         3.152703         0.034680        -0.761779
 O         2.406798        -1.128819        -0.315945
 H        -0.178699        -0.697806         1.380016
 H        -0.748339         0.282116        -0.214810
 H        -0.276788        -1.371701        -0.421707
 H         1.546806         1.576436         1.465818
 H         2.140944         0.111723         2.213943
 H         4.374227         1.910138         1.788942
 H         1.956156         2.961274        -0.031331
 H         3.345773         2.593578        -1.206387
 H         1.168227         0.823607        -2.145619
 H         4.000513        -0.067336        -1.443359
