19
Iteration:  4707
 C        -0.066497        -0.490757         0.200374
 C         1.407144        -0.020040         0.127935
 C         1.999556         0.741937         1.280386
 C         3.292742         1.178939         0.404676
 O         4.587146         1.284384         0.888904
 C         2.537260         2.143331        -0.578895
 C         1.872472         0.879792        -1.090449
 C         3.188936         0.083252        -0.755786
 O         2.424398        -1.068226        -0.230698
 H        -0.728770         0.335262         0.050738
 H        -0.355394        -1.277950        -0.463331
 H        -0.302276        -0.729110         1.312706
 H         1.393626         1.525462         1.700100
 H         2.443988         0.103112         2.007428
 H         4.557697         1.849507         1.636281
 H         1.782706         2.820214        -0.127100
 H         2.904169         2.720434        -1.404063
 H         1.164006         0.954487        -1.860693
 H         4.145648        -0.212912        -1.261387
