19
Iteration:  1847
 C        -0.070124        -0.508337         0.197435
 C         1.397992         0.040396         0.106166
 C         2.020436         0.841549         1.207536
 C         3.315617         1.052405         0.390332
 O         4.506429         1.523679         1.001232
 C         2.593881         2.130337        -0.535534
 C         1.984126         0.833188        -1.143873
 C         3.162791        -0.012176        -0.746281
 O         2.321817        -1.108578        -0.238043
 H        -0.005389        -1.590582         0.542839
 H        -0.732781         0.053620         0.860182
 H        -0.493650        -0.604182        -0.778566
 H         1.509786         1.676200         1.467193
 H         2.064203         0.085123         2.127500
 H         4.607409         0.978547         1.912787
 H         1.958980         2.972443        -0.235642
 H         3.370296         2.643475        -1.142418
 H         1.512406         0.827647        -2.151376
 H         4.060982        -0.454243        -1.338169
