19
Iteration:  3800charge 0 multiplicity 1
 C        -0.080255        -0.411862         0.263379
 C         1.375266        -0.027940         0.061419
 C         2.191676         0.573901         1.249286
 C         3.217583         1.173640         0.432276
 O         4.427056         1.645154         1.011205
 C         2.613465         2.105149        -0.619881
 C         1.911029         0.810772        -1.183259
 C         3.206640        -0.008679        -0.715437
 O         2.348796        -1.080096        -0.263485
 H        -0.295669        -0.388242         1.394701
 H        -0.879610         0.331268        -0.066458
 H        -0.177043        -1.357717        -0.219902
 H         1.659794         1.167960         1.824148
 H         2.513221        -0.255721         1.904837
 H         4.768811         0.856962         1.308284
 H         2.021486         2.936113        -0.196728
 H         3.421272         2.488774        -1.243027
 H         1.230228         0.707477        -2.018967
 H         4.055770        -0.344206        -1.320038
