19
Iteration:  3909charge 0 multiplicity 1
 C        -0.061840        -0.573193         0.185155
 C         1.332183         0.007235         0.103042
 C         2.015466         0.738355         1.208556
 C         3.321217         1.137987         0.392185
 O         4.588092         1.443642         1.001203
 C         2.598625         2.156687        -0.587451
 C         1.876245         0.862161        -1.124921
 C         3.150720        -0.002786        -0.743671
 O         2.364510        -1.065818        -0.177357
 H         0.103774        -1.664187         0.429432
 H        -0.591449        -0.334327         1.179374
 H        -0.676857        -0.553115        -0.692865
 H         1.429369         1.805468         1.294627
 H         2.251573         0.183280         2.163739
 H         4.681997         2.393087         1.142742
 H         2.075857         2.938288         0.004020
 H         3.230328         2.550964        -1.398802
 H         1.386439         0.846101        -2.095236
 H         4.038049        -0.379087        -1.214491
