19
Iteration:   591
 C        -0.123153        -0.462941         0.126479
 C         1.325073         0.029503         0.074898
 C         1.951604         0.761060         1.274843
 C         3.276354         1.134949         0.397507
 O         4.573683         1.349813         1.033908
 C         2.689725         2.167018        -0.608239
 C         2.004410         0.835410        -1.147433
 C         3.202784        -0.021224        -0.654350
 O         2.328498        -1.096991        -0.229939
 H        -0.291293        -0.822738         1.222431
 H        -0.767679         0.439852        -0.141898
 H        -0.259952        -1.151378        -0.657431
 H         1.514204         1.820918         1.185853
 H         1.950460         0.299037         2.306780
 H         4.424997         1.909088         1.900749
 H         2.061690         3.059556        -0.334157
 H         3.529470         2.367234        -1.309697
 H         1.400396         0.822411        -2.109250
 H         4.044840        -0.371396        -1.302463
