19
Iteration:  2488
 C        -0.042311        -0.516273         0.296920
 C         1.351900        -0.002703         0.026122
 C         2.098185         0.684834         1.264371
 C         3.255986         1.155641         0.411172
 O         4.448684         1.524313         1.066315
 C         2.658056         2.121916        -0.664580
 C         1.891537         0.902088        -1.173853
 C         3.158300         0.021100        -0.706430
 O         2.341674        -1.085425        -0.291373
 H         0.127207        -1.428640         0.861193
 H        -0.741507         0.173378         0.881573
 H        -0.473118        -0.865274        -0.633109
 H         1.526309         1.361686         1.791819
 H         2.490658        -0.103925         1.948582
 H         4.728533         0.781057         1.754737
 H         2.365258         3.138244        -0.383931
 H         3.365287         2.501070        -1.405998
 H         1.445095         0.933666        -2.146262
 H         4.013934        -0.152589        -1.327977
