19
Iteration:  4228charge 0 multiplicity 1
 C        -0.022117        -0.586328         0.209639
 C         1.316069         0.007533         0.125239
 C         2.083946         0.767336         1.255222
 C         3.316237         1.120069         0.330659
 O         4.506266         1.646523         1.079365
 C         2.672132         2.095205        -0.674869
 C         1.876244         0.844999        -1.150599
 C         3.153014        -0.067305        -0.746564
 O         2.259314        -1.061174        -0.199491
 H         0.017248        -1.644380         0.465744
 H        -0.694558        -0.063450         0.927021
 H        -0.803906        -0.432526        -0.698129
 H         1.719996         1.550142         1.898260
 H         2.244331        -0.017103         1.994867
 H         5.129335         0.999165         1.229864
 H         2.207772         3.001055        -0.190794
 H         3.546925         2.296786        -1.327900
 H         1.416888         0.915490        -2.075595
 H         4.172482        -0.385756        -1.297207
