19
Iteration:  1390charge 0 multiplicity 1
 C        -0.128529        -0.419805         0.272037
 C         1.351776        -0.053152         0.060791
 C         2.008589         0.698282         1.223899
 C         3.315995         1.101277         0.443642
 O         4.434092         1.553693         1.102931
 C         2.772271         2.051815        -0.645250
 C         1.948019         0.905107        -1.197872
 C         3.204421         0.024847        -0.781316
 O         2.324399        -1.123236        -0.284558
 H        -0.332917        -0.839123         1.274392
 H        -0.714583         0.424437         0.341035
 H        -0.497142        -1.072913        -0.378488
 H         1.306504         1.574739         1.583136
 H         2.291046         0.089580         2.128544
 H         4.896669         0.890710         1.723606
 H         2.236087         2.867980        -0.245309
 H         3.450951         2.381396        -1.397463
 H         1.381144         0.940255        -2.116533
 H         4.133530        -0.090665        -1.334760
