19
Iteration:  1286
 C        -0.099759        -0.392591         0.159247
 C         1.346413         0.075364         0.041036
 C         2.140406         0.677898         1.264100
 C         3.298948         1.140368         0.404216
 O         4.437061         1.549045         1.079224
 C         2.699192         2.043407        -0.665856
 C         2.013559         0.825055        -1.153488
 C         3.165893        -0.020098        -0.678607
 O         2.242542        -1.099295        -0.224276
 H         0.214135        -1.249533         0.830123
 H        -0.894423         0.298249         0.662096
 H        -0.540885        -0.690019        -0.912627
 H         1.680443         1.493101         1.801638
 H         2.363063        -0.127182         2.076045
 H         4.499697         0.777877         1.748125
 H         2.035204         2.915560        -0.242441
 H         3.404985         2.456027        -1.451242
 H         1.553968         0.742007        -2.123718
 H         3.989741        -0.244890        -1.327427
