19
Iteration:  1464charge 0 multiplicity 1
 C        -0.077138        -0.379537         0.085172
 C         1.367192        -0.076224         0.102085
 C         1.943834         0.717123         1.264718
 C         3.285394         1.163857         0.391414
 O         4.561125         1.480812         0.926256
 C         2.660931         2.104567        -0.603543
 C         1.923467         0.853584        -1.081927
 C         3.171381         0.025766        -0.686432
 O         2.390513        -1.115959        -0.150405
 H        -0.346912        -1.441889         0.403201
 H        -0.813301         0.301714         0.662576
 H        -0.485656        -0.470200        -0.957298
 H         1.461621         1.521297         1.634105
 H         2.139880        -0.034446         2.083190
 H         4.568553         1.079611         1.880844
 H         2.036008         2.925421        -0.159424
 H         3.465274         2.361902        -1.285625
 H         1.288634         0.913962        -1.956949
 H         4.124476        -0.150339        -1.190130
