19
Iteration:  4162
 C        -0.070191        -0.462763         0.243838
 C         1.372806         0.001295         0.094060
 C         2.045148         0.704711         1.247295
 C         3.248345         1.182687         0.375380
 O         4.525048         1.422672         0.948749
 C         2.512889         2.179989        -0.615694
 C         1.957044         0.852180        -1.165143
 C         3.195839         0.049653        -0.765377
 O         2.408303        -1.099286        -0.130058
 H        -0.156689        -0.952289         1.239018
 H        -0.630679         0.520517         0.068148
 H        -0.403290        -1.289544        -0.572349
 H         1.609253         1.553552         1.854847
 H         2.381274        -0.138058         1.893646
 H         4.425621         0.974380         1.872619
 H         1.747321         2.945434        -0.317149
 H         3.315037         2.458338        -1.323573
 H         1.498780         0.653859        -2.121478
 H         4.099326        -0.236045        -1.478511
