19
Iteration:  3249charge 0 multiplicity 1
 C         0.007092        -0.574970         0.256806
 C         1.392822         0.007394         0.137141
 C         1.982478         0.802741         1.256985
 C         3.312800         1.155096         0.376926
 O         4.513490         1.516690         1.026775
 C         2.608208         2.104150        -0.554939
 C         1.908003         0.856150        -1.095129
 C         3.117500         0.025290        -0.843620
 O         2.360544        -1.078701        -0.261691
 H         0.132334        -1.708130         0.564117
 H        -0.638412         0.114758         0.857115
 H        -0.521669        -0.735017        -0.814706
 H         1.523290         1.716688         1.341534
 H         2.116766         0.227596         2.179564
 H         4.696012         0.698003         1.376297
 H         2.045632         2.940064        -0.100726
 H         3.306414         2.520052        -1.285736
 H         1.440443         0.702039        -2.026353
 H         3.928045        -0.233308        -1.552639
