19
Iteration:  4097
 C        -0.098550        -0.461667         0.270154
 C         1.354330        -0.018536         0.088798
 C         2.145144         0.582911         1.231469
 C         3.268807         1.167092         0.409145
 O         4.475752         1.572821         0.963626
 C         2.602360         2.119926        -0.592303
 C         1.983419         0.862776        -1.154459
 C         3.128364         0.033302        -0.699237
 O         2.327438        -1.105722        -0.244236
 H        -0.576183        -0.344933         1.231799
 H        -0.691883         0.188411        -0.403014
 H        -0.147372        -1.590517        -0.007279
 H         1.689226         1.390477         1.785765
 H         2.724109        -0.296586         1.650474
 H         4.502436         1.481565         1.973925
 H         2.033753         3.064075        -0.484875
 H         3.459680         2.354028        -1.256041
 H         1.425251         0.808534        -2.077623
 H         4.079330        -0.201395        -1.380490
