19
Iteration:  1764
 C        -0.090100        -0.374497         0.154441
 C         1.349673        -0.028088         0.058359
 C         2.045479         0.664838         1.242909
 C         3.287764         1.161114         0.419042
 O         4.517005         1.536057         0.952500
 C         2.632435         2.101357        -0.499838
 C         1.947203         0.825963        -1.089444
 C         3.161449         0.033400        -0.722175
 O         2.397965        -1.148840        -0.222970
 H        -0.419108        -0.681504         1.170795
 H        -0.778633         0.471483        -0.174316
 H        -0.290604        -1.203457        -0.640553
 H         1.375977         1.567495         1.439497
 H         2.040996        -0.023685         2.072079
 H         4.738010         0.898151         1.690160
 H         1.871947         2.740736        -0.012309
 H         3.231656         2.536955        -1.306653
 H         1.459246         0.847799        -2.176496
 H         4.090011        -0.203439        -1.306409
