19
Iteration:   825charge 0 multiplicity 1
 C        -0.020633        -0.288196         0.181288
 C         1.388262        -0.078131        -0.011565
 C         2.055917         0.755817         1.234148
 C         3.300999         1.061608         0.365550
 O         4.455828         1.459808         1.177721
 C         2.666650         2.062769        -0.631634
 C         2.001540         0.804782        -1.203132
 C         3.095784        -0.045361        -0.736083
 O         2.338108        -1.095135        -0.225347
 H        -0.117491        -0.616122         1.347866
 H        -0.573334         0.644196         0.226322
 H        -0.609595        -1.034111        -0.376492
 H         1.537848         1.730877         1.555880
 H         2.401030         0.170280         2.146664
 H         4.061923         2.039388         1.831593
 H         1.958518         2.810303        -0.322368
 H         3.232041         2.633263        -1.350422
 H         1.500814         0.645860        -2.181530
 H         4.006522        -0.395264        -1.312935
