19
Iteration:  1688
 C        -0.072742        -0.487020         0.231385
 C         1.343694        -0.013386         0.079239
 C         2.029546         0.756393         1.189049
 C         3.269938         1.134391         0.419968
 O         4.491363         1.518390         1.099341
 C         2.708143         2.127369        -0.614741
 C         1.962970         0.828873        -1.130197
 C         3.117631        -0.016937        -0.751033
 O         2.371132        -1.080450        -0.297432
 H        -0.294641        -1.266710         1.006237
 H        -0.600669         0.320740         0.815492
 H        -0.610753        -0.806068        -0.752851
 H         1.389670         1.662835         1.432193
 H         2.242829         0.145634         1.993067
 H         4.749312         0.857063         1.782941
 H         2.082408         2.986754        -0.223462
 H         3.553386         2.513442        -1.242051
 H         1.395065         0.694033        -2.097937
 H         3.944615        -0.314059        -1.442977
