19
Iteration:  3348
 C        -0.080791        -0.481897         0.151784
 C         1.338197         0.047536         0.070432
 C         2.216056         0.547318         1.338167
 C         3.278768         1.118941         0.388341
 O         4.544615         1.570018         0.983453
 C         2.515033         2.149816        -0.582223
 C         1.852018         0.850092        -1.187082
 C         3.155088         0.050802        -0.715799
 O         2.365877        -1.098638        -0.232645
 H        -0.366358        -0.753100         1.247970
 H        -0.702170         0.327211        -0.121842
 H        -0.155734        -1.465420        -0.374639
 H         1.740999         1.366143         1.948315
 H         2.552776        -0.364854         1.997239
 H         4.357591         1.401439         1.856931
 H         1.963802         3.055947        -0.382807
 H         3.350750         2.487727        -1.203251
 H         1.285355         1.010327        -2.071932
 H         4.072955        -0.241615        -1.290211
