19
Iteration:   842
 C        -0.090655        -0.346373         0.271465
 C         1.346741         0.085143         0.052026
 C         2.093789         0.708768         1.210040
 C         3.271752         1.176245         0.428779
 O         4.457918         1.439944         1.164935
 C         2.625097         2.082003        -0.722692
 C         2.017197         0.785262        -1.220810
 C         3.245116        -0.099113        -0.727896
 O         2.294630        -1.115045        -0.239308
 H        -0.123103        -0.988588         1.129813
 H        -0.790463         0.526582         0.257660
 H        -0.379195        -0.747915        -0.688802
 H         1.491817         1.526908         1.610052
 H         2.175936        -0.160891         1.829391
 H         4.325798         2.068288         1.924930
 H         1.992269         2.928576        -0.321180
 H         3.474855         2.359342        -1.400515
 H         1.536534         0.683864        -2.169488
 H         4.106299        -0.349966        -1.283053
