19
Iteration:   722
 C        -0.071600        -0.430651         0.111034
 C         1.344303         0.045533         0.111682
 C         2.032596         0.741914         1.242605
 C         3.246901         1.166132         0.403587
 O         4.493118         1.298784         1.095302
 C         2.699101         2.142390        -0.746403
 C         1.981991         0.850920        -1.156870
 C         3.162511         0.019211        -0.653080
 O         2.340794        -1.072408        -0.180292
 H        -0.164758        -1.378490         0.877020
 H        -0.731392         0.401328         0.575438
 H        -0.727105        -0.614509        -0.772969
 H         1.297540         1.433459         1.547030
 H         2.283801         0.012966         1.986412
 H         4.671453         2.154752         1.541618
 H         2.115487         3.045346        -0.375310
 H         3.532003         2.325355        -1.472223
 H         1.416892         0.597658        -2.095163
 H         4.174621        -0.277891        -1.012447
