19
Iteration:  2370
 C        -0.045068        -0.445172         0.238215
 C         1.389687        -0.049100         0.095626
 C         2.090461         0.667833         1.186005
 C         3.318820         1.155904         0.423550
 O         4.490663         1.603282         1.069193
 C         2.584703         2.144754        -0.520649
 C         1.963492         0.885562        -1.135131
 C         3.101658        -0.092460        -0.797582
 O         2.342694        -1.160584        -0.345291
 H        -0.214166        -0.634100         1.376160
 H        -0.692177         0.375244        -0.103437
 H        -0.373547        -1.413203        -0.280571
 H         1.576066         1.590202         1.383883
 H         2.323035         0.108756         2.244892
 H         4.666808         1.077294         1.883642
 H         2.016256         2.965490        -0.040273
 H         3.075793         2.776671        -1.260196
 H         1.420202         0.930334        -2.068561
 H         3.984362        -0.315442        -1.417447
