19
Iteration:  4496
 C        -0.005990        -0.456322         0.297597
 C         1.387516        -0.006005         0.068141
 C         2.075724         0.707438         1.255316
 C         3.253710         1.165282         0.382476
 O         4.509809         1.407436         1.039224
 C         2.555322         2.123059        -0.559633
 C         1.901459         0.892727        -1.112587
 C         3.144699         0.068738        -0.851747
 O         2.398374        -1.099979        -0.264945
 H        -1.022986        -0.084144        -0.112064
 H         0.088120        -1.506364        -0.127652
 H        -0.236463        -0.577953         1.338308
 H         1.621272         1.662656         1.452353
 H         2.190550         0.149884         2.152279
 H         4.768493         0.701122         1.621357
 H         2.022789         3.002989        -0.072034
 H         3.140009         2.573356        -1.417484
 H         1.233050         0.922165        -2.124722
 H         3.878141         0.052208        -1.667126
