19
Iteration:  2199
 C        -0.082327        -0.429612         0.238062
 C         1.349858        -0.052284         0.066293
 C         2.102670         0.695256         1.242547
 C         3.291728         1.115290         0.418615
 O         4.443543         1.561749         1.051593
 C         2.611665         2.112184        -0.568361
 C         1.947920         0.863240        -1.129217
 C         3.150185        -0.064331        -0.770393
 O         2.404384        -1.064361        -0.329432
 H        -0.116878        -1.033008         1.148367
 H        -0.660077         0.355642         0.503962
 H        -0.437156        -1.089670        -0.550898
 H         1.524671         1.662429         1.449675
 H         2.241544         0.092947         2.097018
 H         4.538607         1.065826         1.815278
 H         2.158414         3.004033        -0.144129
 H         3.304795         2.362424        -1.358235
 H         1.291807         0.810805        -1.989169
 H         4.087594        -0.309677        -1.315667
