19
Iteration:  4011
 C        -0.039136        -0.557149         0.156210
 C         1.391258         0.005536         0.106492
 C         2.078521         0.713280         1.291518
 C         3.259124         1.142193         0.369511
 O         4.498747         1.586408         1.001147
 C         2.658112         2.142898        -0.614896
 C         1.925866         0.839211        -1.159906
 C         3.085002         0.022157        -0.707679
 O         2.299888        -1.068227        -0.172669
 H         0.051779        -1.216538         0.983795
 H        -0.850683         0.123968         0.524707
 H        -0.287709        -1.130238        -0.811399
 H         1.516887         1.550949         1.722087
 H         2.437788         0.039835         2.246135
 H         5.077662         0.730840         1.091833
 H         2.059140         2.985892        -0.268149
 H         3.459994         2.469286        -1.294152
 H         1.441566         0.572094        -2.127168
 H         3.963630        -0.349266        -1.428250
