19
Iteration:  3776
 C        -0.060181        -0.505762         0.198918
 C         1.346947        -0.035686         0.089609
 C         2.112644         0.695950         1.291233
 C         3.346233         1.132112         0.350915
 O         4.469439         1.633536         1.072084
 C         2.613148         2.134019        -0.554540
 C         1.933218         0.801636        -1.114509
 C         3.094906        -0.021953        -0.793697
 O         2.362264        -1.126120        -0.236489
 H        -0.393298        -0.554912         1.316786
 H        -0.766078         0.361076         0.050280
 H        -0.169433        -1.301534        -0.524212
 H         1.477317         1.531449         1.558654
 H         2.165587         0.133230         2.148959
 H         5.254473         1.095635         0.760394
 H         1.999019         2.897057        -0.036120
 H         3.136284         2.540316        -1.451744
 H         1.488054         0.785875        -2.142462
 H         3.817602        -0.255793        -1.471967
