19
Iteration:   861
 C        -0.125010        -0.434697         0.153994
 C         1.336521         0.003058         0.038309
 C         2.042043         0.694043         1.255892
 C         3.278572         1.184150         0.426698
 O         4.480928         1.418260         1.018944
 C         2.759829         2.143256        -0.712221
 C         2.006916         0.847201        -1.191031
 C         3.165253        -0.016418        -0.595109
 O         2.282751        -1.083029        -0.172707
 H        -0.063875        -1.249838         0.839029
 H        -0.679103         0.423346         0.614423
 H        -0.686472        -0.749933        -0.830640
 H         1.445823         1.569509         1.849177
 H         2.503236        -0.051532         2.044476
 H         4.239940         1.952159         1.758060
 H         2.097366         2.945686        -0.381358
 H         3.587030         2.317388        -1.388785
 H         1.662561         0.615887        -2.234505
 H         4.062751        -0.431968        -1.141144
