19
Iteration:  4926charge 0 multiplicity 1
 C        -0.032179        -0.329936         0.277373
 C         1.393979        -0.081313         0.127975
 C         2.122894         0.563513         1.331070
 C         3.247497         1.115796         0.415215
 O         4.520218         1.478929         0.983754
 C         2.496765         2.183544        -0.541855
 C         1.900127         0.817407        -1.094609
 C         3.118717        -0.007614        -0.885177
 O         2.428005        -1.106686        -0.323959
 H        -0.456287         0.682570         0.232710
 H        -0.455627        -0.910196        -0.542789
 H        -0.227626        -0.915592         1.285889
 H         1.629814         1.501309         1.842646
 H         2.444329        -0.306858         2.045205
 H         4.305861         2.496564         1.101584
 H         1.822179         3.044794        -0.092325
 H         3.359570         2.703775        -1.079519
 H         1.400500         0.565135        -2.106289
 H         3.994941        -0.211300        -1.619174
