19
Iteration:   922charge 0 multiplicity 1
 C        -0.081372        -0.456099         0.029714
 C         1.316456         0.035155         0.093882
 C         2.093320         0.821274         1.264065
 C         3.225742         1.168181         0.433188
 O         4.540819         1.271473         1.039090
 C         2.602948         2.075880        -0.668628
 C         1.968613         0.864038        -1.208712
 C         3.148373         0.021172        -0.662671
 O         2.357358        -1.029142        -0.069619
 H        -0.262472        -1.355373         0.767508
 H        -0.714679         0.265828         0.485563
 H        -0.332027        -0.883773        -0.899136
 H         1.600140         1.590826         1.740221
 H         2.364451         0.042634         1.905734
 H         4.698881         2.050968         1.660443
 H         1.958062         2.990727        -0.630749
 H         3.445764         2.473101        -1.295212
 H         1.505229         0.776885        -2.224037
 H         4.035556        -0.435420        -1.197447
