19
Iteration:   743
 C        -0.074117        -0.478190         0.040559
 C         1.323244         0.058758         0.087184
 C         1.981751         0.878512         1.237072
 C         3.326110         1.095686         0.394392
 O         4.545100         1.326273         1.020817
 C         2.691489         2.069166        -0.569627
 C         1.929848         0.887421        -1.113694
 C         3.141332         0.003826        -0.706085
 O         2.380306        -1.115490        -0.099515
 H        -0.370170        -1.347917         0.843766
 H        -0.670085         0.519494         0.108532
 H        -0.327829        -0.888981        -1.051643
 H         1.539003         1.815631         1.511690
 H         2.040106         0.319076         2.173030
 H         4.580139         2.105360         1.699058
 H         1.940081         2.843230        -0.220646
 H         3.373828         2.372888        -1.406810
 H         1.409885         0.783841        -2.105039
 H         3.808625        -0.333591        -1.534531
