19
Iteration:  3267charge 0 multiplicity 1
 C        -0.016897        -0.575687         0.247501
 C         1.362328        -0.018595         0.088529
 C         2.131312         0.717348         1.230830
 C         3.265499         1.149001         0.409979
 O         4.454173         1.469461         1.042872
 C         2.592117         2.233236        -0.686431
 C         1.906127         0.863321        -1.177698
 C         3.141812         0.030730        -0.693857
 O         2.356792        -1.061384        -0.212004
 H         0.111360        -1.552331         0.679771
 H        -0.680362        -0.018866         0.858627
 H        -0.662760        -0.584605        -0.613333
 H         1.423065         1.562170         1.785349
 H         2.476800        -0.007125         1.942525
 H         4.971145         0.732487         1.176021
 H         2.014179         2.998402        -0.125863
 H         3.310198         2.608902        -1.432497
 H         1.399820         0.947008        -2.148360
 H         4.030255        -0.248555        -1.253832
