19
Iteration:  3364charge 0 multiplicity 1
 C        -0.044666        -0.492282         0.232069
 C         1.383277        -0.029354         0.083354
 C         2.140671         0.581419         1.262946
 C         3.246227         1.219686         0.426717
 O         4.454515         1.462333         0.950088
 C         2.591214         2.136555        -0.618639
 C         1.942716         0.895302        -1.072710
 C         3.156442         0.046876        -0.739063
 O         2.358052        -1.025157        -0.254901
 H        -0.326443        -0.755581         1.247885
 H        -0.842131         0.172774        -0.309287
 H        -0.272824        -1.426706        -0.314330
 H         1.669922         1.205258         1.981503
 H         2.564474        -0.244991         1.737072
 H         4.500123         1.615519         1.863316
 H         1.960104         2.945048        -0.174480
 H         3.253292         2.539401        -1.413239
 H         1.464429         0.600144        -2.073708
 H         3.997154        -0.184903        -1.379402
