19
Iteration:  3112charge 0 multiplicity 1
 C        -0.035554        -0.616844         0.176544
 C         1.331609         0.033636         0.101761
 C         2.112852         0.730067         1.274713
 C         3.292820         1.162708         0.373972
 O         4.537381         1.385149         0.986937
 C         2.568331         2.173021        -0.537565
 C         1.901257         0.940142        -1.107624
 C         3.167663         0.004454        -0.721315
 O         2.332843        -1.075010        -0.270630
 H        -0.063346        -1.536510         0.813215
 H        -0.836667         0.071143         0.616635
 H        -0.192627        -1.096421        -0.785539
 H         1.577726         1.698220         1.713028
 H         2.520362         0.077086         2.030978
 H         4.466293         2.329878         1.435028
 H         1.995795         3.017510        -0.068719
 H         3.150248         2.532655        -1.425265
 H         1.316753         0.970044        -2.082316
 H         4.034756        -0.403120        -1.247893
