19
Iteration:  4591
 C        -0.090604        -0.339809         0.213233
 C         1.351170        -0.048677         0.098269
 C         2.163235         0.654571         1.345338
 C         3.277560         1.192071         0.321795
 O         4.499001         1.465539         0.955230
 C         2.476382         2.134534        -0.560879
 C         1.928231         0.853414        -1.143842
 C         3.175562        -0.038675        -0.757778
 O         2.466310        -1.103083        -0.251768
 H        -0.611162         0.432384         0.857633
 H        -0.484668        -0.333321        -0.826716
 H        -0.317735        -1.222073         0.716488
 H         1.512287         1.297521         1.955558
 H         2.676957        -0.210446         1.968816
 H         4.507101         1.256811         1.892667
 H         1.753366         2.810722        -0.109222
 H         2.759144         2.805849        -1.423280
 H         1.299405         0.718424        -2.077398
 H         4.049712        -0.490487        -1.223027
