19
Iteration:  1680
 C        -0.057490        -0.451003         0.280981
 C         1.323819        -0.022062         0.067442
 C         1.985975         0.719859         1.228303
 C         3.242646         1.195824         0.423118
 O         4.460989         1.484621         1.089695
 C         2.720890         2.153943        -0.659030
 C         1.937127         0.840329        -1.154054
 C         3.200558         0.003514        -0.733999
 O         2.358900        -1.120460        -0.290803
 H         0.110888        -1.395763         0.788429
 H        -0.686606         0.388437         0.739600
 H        -0.595405        -0.645875        -0.678083
 H         1.322002         1.576072         1.737891
 H         2.217963        -0.116151         2.010745
 H         4.866383         0.841020         1.637576
 H         2.267446         3.140425        -0.318312
 H         3.472619         2.409817        -1.467176
 H         1.613149         0.726877        -2.129361
 H         4.006493        -0.279416        -1.349405
