19
Iteration:  2292
 C        -0.068441        -0.493755         0.094952
 C         1.426401        -0.017984         0.090550
 C         2.003665         0.779298         1.281840
 C         3.340569         1.079263         0.374990
 O         4.562543         1.522258         0.952924
 C         2.585791         2.110860        -0.555560
 C         1.855864         0.868170        -1.095906
 C         3.151996        -0.019354        -0.687013
 O         2.371626        -1.057852        -0.205029
 H        -0.284345        -1.355084         0.777036
 H        -0.832121         0.249377         0.591752
 H        -0.048475        -0.945357        -0.898913
 H         1.462567         1.654590         1.398377
 H         2.134339         0.156547         2.282239
 H         4.850605         0.835981         1.736742
 H         1.892133         2.717732         0.068555
 H         3.198981         2.633314        -1.340238
 H         1.237942         0.930956        -2.008891
 H         3.856611        -0.228227        -1.434069
