19
Iteration:  4491
 C        -0.014251        -0.452867         0.284698
 C         1.364801        -0.038561         0.115849
 C         2.101854         0.731719         1.234177
 C         3.239089         1.161521         0.364015
 O         4.502569         1.395344         1.019381
 C         2.562727         2.156169        -0.563500
 C         1.893377         0.871986        -1.128577
 C         3.110130         0.085598        -0.857464
 O         2.430599        -1.095187        -0.267428
 H        -0.834433         0.095381        -0.151803
 H         0.024896        -1.464957        -0.095379
 H        -0.275506        -0.559335         1.381123
 H         1.391546         1.578698         1.552281
 H         2.265683         0.073131         2.165227
 H         4.714882         0.708009         1.788790
 H         2.019804         2.842756         0.070241
 H         3.174788         2.549197        -1.377535
 H         1.481755         0.917863        -2.031625
 H         3.974921         0.025008        -1.541867
