19
Iteration:  1801charge 0 multiplicity 1
 C        -0.097848        -0.446733         0.220757
 C         1.328676         0.067254         0.122221
 C         2.127602         0.627523         1.262618
 C         3.291055         1.199011         0.400169
 O         4.383480         1.543244         1.116320
 C         2.679496         2.095252        -0.693664
 C         1.986069         0.815580        -1.163816
 C         3.177610        -0.017371        -0.741997
 O         2.329467        -1.075437        -0.262977
 H        -0.156249        -1.274055         1.002660
 H        -0.888487         0.372633         0.508849
 H        -0.306006        -0.999369        -0.726571
 H         1.655371         1.460387         1.804521
 H         2.536751        -0.128548         1.958937
 H         4.865882         0.622107         1.285382
 H         2.035349         2.963440        -0.321924
 H         3.302481         2.640666        -1.451005
 H         1.537162         0.773656        -2.079182
 H         4.052249        -0.240451        -1.320333
