19
Iteration:  3733charge 0 multiplicity 1
 C        -0.021990        -0.541646         0.164692
 C         1.378953         0.023137         0.084545
 C         2.079606         0.706479         1.298742
 C         3.232650         1.201106         0.386997
 O         4.444679         1.314943         1.023358
 C         2.605707         2.192226        -0.733667
 C         1.907709         0.813568        -1.168886
 C         3.128563         0.096175        -0.696538
 O         2.405244        -1.017411        -0.073497
 H         0.023708        -1.514910         0.898459
 H        -0.938861        -0.026048         0.646832
 H        -0.437826        -0.865026        -0.786120
 H         1.625108         1.496221         1.785294
 H         2.509661         0.076774         2.040750
 H         4.985568         2.009868         0.437873
 H         1.994701         3.003151        -0.299624
 H         3.457552         2.651050        -1.300720
 H         1.480408         0.417495        -2.119830
 H         3.922554        -0.148978        -1.334682
