19
Iteration:  3619
 C        -0.027733        -0.421324         0.173556
 C         1.391740        -0.072101         0.106946
 C         2.055795         0.743019         1.272996
 C         3.303074         1.110189         0.421632
 O         4.501292         1.503945         1.057464
 C         2.464168         2.167747        -0.597495
 C         1.929887         0.814526        -1.083559
 C         3.155194         0.035187        -0.781496
 O         2.389594        -1.157690        -0.200882
 H        -0.314696        -0.894571         1.243628
 H        -0.427050         0.455715        -0.362834
 H        -0.185979        -1.207918        -0.722045
 H         1.584673         1.729939         1.497408
 H         2.210404         0.187474         2.159506
 H         5.327257         1.582528         0.386335
 H         1.899896         2.915559         0.007489
 H         3.051452         2.647763        -1.423278
 H         1.321331         0.613788        -1.932820
 H         3.970655        -0.347992        -1.510047
