19
Iteration:  1332
 C        -0.142634        -0.428435         0.021129
 C         1.367428         0.023052         0.080882
 C         2.039147         0.784058         1.230514
 C         3.319836         1.069791         0.421137
 O         4.541882         1.467863         0.939988
 C         2.572674         2.138010        -0.491313
 C         1.911617         0.828827        -1.030978
 C         3.231546        -0.010300        -0.735384
 O         2.340039        -1.114736        -0.130356
 H        -0.415673        -0.870178         0.956555
 H        -0.710809         0.531947        -0.279854
 H        -0.285023        -1.087053        -0.901613
 H         1.702493         1.736305         1.557036
 H         2.121721         0.075629         2.195039
 H         4.950805         0.939309         1.604432
 H         1.984349         3.002377        -0.037508
 H         3.324575         2.523413        -1.240176
 H         1.504148         0.615871        -2.087706
 H         4.076088        -0.225197        -1.479881
