19
Iteration:  2665
 C        -0.035820        -0.506134         0.237360
 C         1.336477        -0.004931         0.063695
 C         2.053188         0.738262         1.175553
 C         3.342480         1.162742         0.384609
 O         4.596765         1.536221         1.066623
 C         2.567002         2.123025        -0.532921
 C         1.952051         0.847589        -1.134367
 C         3.145714        -0.005914        -0.809318
 O         2.291711        -1.119823        -0.265473
 H         0.099920        -1.629997         0.629714
 H        -0.531812         0.156902         1.025666
 H        -0.632877        -0.600005        -0.756310
 H         1.549219         1.574104         1.466175
 H         2.297368         0.117603         2.158382
 H         4.238517         1.418996         2.041704
 H         1.858199         2.700704         0.137538
 H         3.342650         2.598280        -1.174806
 H         1.322165         0.806739        -2.106820
 H         3.872699        -0.305108        -1.673093
