19
Iteration:  1221
 C        -0.111214        -0.456145         0.150132
 C         1.328507         0.043998         0.070183
 C         2.101637         0.688712         1.290716
 C         3.253781         1.171316         0.417163
 O         4.470164         1.446212         1.051684
 C         2.692210         2.104128        -0.714905
 C         2.006597         0.861439        -1.184766
 C         3.217542         0.043258        -0.691699
 O         2.258195        -1.075016        -0.177208
 H        -0.193217        -1.115711         0.949615
 H        -0.910481         0.291177         0.388340
 H        -0.449820        -1.034920        -0.771963
 H         1.717126         1.569127         1.813472
 H         2.311178        -0.172815         2.111339
 H         4.575534         0.776638         1.815427
 H         2.189274         3.075175        -0.432703
 H         3.479317         2.460042        -1.402090
 H         1.566430         0.697414        -2.142769
 H         4.147415        -0.206660        -1.175015
