19
Iteration:  2395charge 0 multiplicity 1
 C        -0.075078        -0.446967         0.151788
 C         1.365465         0.025948         0.089365
 C         2.164700         0.578643         1.316969
 C         3.229792         1.175701         0.438934
 O         4.462982         1.526555         0.981034
 C         2.616573         2.050212        -0.610043
 C         1.902687         0.854365        -1.147632
 C         3.147065         0.063674        -0.719945
 O         2.358167        -1.039331        -0.248226
 H        -0.072686        -0.930084         1.189712
 H        -0.787454         0.350829         0.006538
 H        -0.431395        -1.222292        -0.586465
 H         1.652988         1.264737         2.051584
 H         2.614429        -0.191641         1.837634
 H         4.566669         1.122602         1.783681
 H         2.160850         2.945233        -0.227970
 H         3.276650         2.482104        -1.329821
 H         1.522431         0.694896        -2.189001
 H         4.100111        -0.170107        -1.309507
