19
Iteration:  1770
 C        -0.067767        -0.357938         0.162331
 C         1.391686        -0.010267         0.068595
 C         2.040929         0.675690         1.172969
 C         3.306459         1.138967         0.444919
 O         4.521612         1.556191         0.999906
 C         2.594321         2.082011        -0.491200
 C         1.912879         0.819917        -1.153335
 C         3.157026         0.025485        -0.752447
 O         2.361240        -1.173884        -0.195782
 H        -0.278649        -0.815227         1.126516
 H        -0.710014         0.409642        -0.169821
 H        -0.187759        -1.101758        -0.546368
 H         1.446224         1.516309         1.431256
 H         2.136843         0.104599         2.211053
 H         4.702632         0.870072         1.566905
 H         1.926280         2.749018         0.051460
 H         3.175946         2.590832        -1.262042
 H         1.571328         1.063613        -2.122257
 H         4.027029        -0.236824        -1.386785
