19
Iteration:   738charge 0 multiplicity 1
 C        -0.094521        -0.450823         0.079792
 C         1.345901         0.000728         0.068059
 C         1.982244         0.832526         1.221278
 C         3.305099         1.130554         0.410957
 O         4.556044         1.314301         1.051021
 C         2.689499         2.090246        -0.588443
 C         1.904571         0.833286        -1.135495
 C         3.154113         0.012363        -0.708100
 O         2.364215        -1.064475        -0.114418
 H        -0.280649        -1.247535         0.640492
 H        -0.641804         0.431382         0.260262
 H        -0.182382        -0.821943        -0.947454
 H         1.533967         1.854572         1.571545
 H         2.066475         0.355236         2.239485
 H         4.498257         2.072824         1.556665
 H         2.128944         2.966612        -0.310317
 H         3.367310         2.308309        -1.396954
 H         1.453199         0.760861        -2.107162
 H         3.852230        -0.321024        -1.472819
