19
Iteration:  3072
 C        -0.007976        -0.561433         0.247888
 C         1.376848         0.012268         0.055757
 C         2.058395         0.719204         1.280950
 C         3.227945         1.175852         0.397027
 O         4.506525         1.349811         0.964206
 C         2.584935         2.176414        -0.661826
 C         1.858997         0.895578        -1.108244
 C         3.200298         0.044198        -0.709874
 O         2.409676        -1.051620        -0.246367
 H        -0.118502        -1.627542         0.674867
 H        -0.638639        -0.103504         0.994884
 H        -0.579769        -0.543069        -0.826847
 H         1.461898         1.384987         1.829196
 H         2.197490        -0.075702         2.101153
 H         4.463067         1.752513         1.788328
 H         2.138691         3.106365        -0.258418
 H         3.320863         2.606003        -1.342952
 H         1.295618         0.993902        -2.070277
 H         4.169855        -0.059667        -1.214361
