19
Iteration:  3091charge 0 multiplicity 1
 C        -0.031820        -0.587183         0.175263
 C         1.394473        -0.056760         0.107539
 C         1.990309         0.727862         1.235930
 C         3.322870         1.159983         0.403735
 O         4.574802         1.398501         0.980540
 C         2.661521         2.144050        -0.527581
 C         1.873552         0.887144        -1.089770
 C         3.050327         0.092789        -0.789144
 O         2.393146        -1.043635        -0.231369
 H        -0.160128        -1.606525         0.707755
 H        -0.624477        -0.091819         0.981799
 H        -0.560840        -0.875872        -0.788298
 H         1.481483         1.709332         1.468369
 H         2.151320         0.280758         2.104672
 H         4.442588         2.079272         1.673925
 H         2.054346         3.017238        -0.210293
 H         3.412004         2.531459        -1.291038
 H         1.344290         0.697151        -2.083950
 H         3.803909        -0.083897        -1.555030
