19
Iteration:  3809charge 0 multiplicity 1
 C        -0.026293        -0.390867         0.278811
 C         1.386464         0.001800         0.022420
 C         2.188697         0.549866         1.328255
 C         3.259769         1.212597         0.389076
 O         4.419531         1.603115         0.989695
 C         2.584701         2.106985        -0.581252
 C         1.945418         0.759820        -1.171051
 C         3.120019         0.038713        -0.748358
 O         2.344746        -1.098369        -0.268605
 H        -0.240743        -0.578559         1.375750
 H        -0.720161         0.273103        -0.235106
 H        -0.420872        -1.303833        -0.058874
 H         1.531676         1.229047         1.849690
 H         2.529272        -0.226934         1.914047
 H         4.600864         0.982475         1.628906
 H         2.016356         3.010262        -0.306695
 H         3.321696         2.411495        -1.360393
 H         1.596051         0.696871        -2.207569
 H         4.009348        -0.155741        -1.169102
