19
Iteration:  2944
 C        -0.015366        -0.512481         0.231487
 C         1.389862        -0.077402         0.102366
 C         2.021483         0.729932         1.316339
 C         3.303249         1.166347         0.459296
 O         4.488257         1.482521         0.997340
 C         2.623289         2.152984        -0.553954
 C         1.859160         0.910546        -1.148371
 C         3.082053         0.081664        -0.759749
 O         2.437750        -1.112920        -0.313771
 H        -0.300610        -0.943399         1.219617
 H        -0.797841         0.358807        -0.088225
 H        -0.365249        -1.300901        -0.487446
 H         1.379616         1.596014         1.469403
 H         2.319500         0.086580         2.150463
 H         4.957584         0.608453         1.205712
 H         2.023995         2.938057        -0.021362
 H         3.399880         2.430012        -1.317738
 H         1.433516         0.805656        -2.178951
 H         3.930077        -0.153501        -1.468516
