19
Iteration:  3562charge 0 multiplicity 1
 C         0.032960        -0.611752         0.247306
 C         1.319193         0.007735         0.086611
 C         2.044963         0.733010         1.224577
 C         3.280057         1.187906         0.418274
 O         4.528788         1.509963         0.996873
 C         2.646383         2.123483        -0.612133
 C         1.931664         0.888677        -1.132934
 C         3.102437         0.011764        -0.745634
 O         2.318564        -1.038410        -0.268261
 H        -0.232225        -0.820229         1.282638
 H        -0.835764         0.051232         0.074319
 H        -0.014118        -1.526433        -0.380165
 H         1.497749         1.524366         1.656593
 H         2.358592         0.064613         2.072072
 H         4.611775         0.878143         1.700314
 H         2.062233         2.941594        -0.173569
 H         3.349948         2.517273        -1.328920
 H         1.258845         0.781530        -1.948499
 H         4.052722        -0.284720        -1.264183
