19
Iteration:  3335
 C        -0.074220        -0.446587         0.168961
 C         1.390796        -0.053534         0.125758
 C         2.134914         0.634300         1.287687
 C         3.311703         1.154441         0.413826
 O         4.530594         1.602742         0.973974
 C         2.558017         2.113760        -0.540124
 C         1.896664         0.875330        -1.117532
 C         3.094417        -0.021321        -0.819506
 O         2.364932        -1.097110        -0.260780
 H        -0.387700        -0.836843         1.155888
 H        -0.761424         0.259503        -0.160456
 H        -0.126958        -1.186284        -0.656101
 H         1.563626         1.494891         1.935110
 H         2.430837        -0.187462         1.987637
 H         4.671373         1.324012         1.959376
 H         1.927097         2.767761         0.070071
 H         3.136307         2.587797        -1.325272
 H         1.450276         0.631742        -1.996467
 H         3.982240        -0.262577        -1.427706
