19
Iteration:  3915charge 0 multiplicity 1
 C        -0.079070        -0.549312         0.238009
 C         1.352803        -0.019180         0.089844
 C         1.976448         0.779827         1.204205
 C         3.356912         1.152933         0.343773
 O         4.579143         1.452731         1.024921
 C         2.547310         2.128531        -0.561823
 C         1.917338         0.836988        -1.115918
 C         3.168683        -0.027862        -0.754228
 O         2.362188        -1.065489        -0.196897
 H         0.112116        -1.623365         0.393756
 H        -0.511415        -0.282509         1.164717
 H        -0.505685        -0.369376        -0.787313
 H         1.419231         1.590741         1.592140
 H         2.238165         0.232978         2.068963
 H         4.504100         2.369566         1.182705
 H         2.094081         2.996153        -0.076274
 H         3.227793         2.470123        -1.366830
 H         1.465456         1.007786        -2.112790
 H         3.971100        -0.462912        -1.443558
