19
Iteration:  3647
 C        -0.073173        -0.415176         0.277171
 C         1.359694         0.010060         0.072860
 C         2.142390         0.626757         1.243834
 C         3.264068         1.178044         0.399279
 O         4.418084         1.534957         1.059137
 C         2.576459         2.068396        -0.647367
 C         1.951044         0.796215        -1.166096
 C         3.172309         0.007553        -0.721882
 O         2.357718        -1.106053        -0.196241
 H        -0.169141        -1.228764         0.846844
 H        -0.684103         0.490132         0.322539
 H        -0.221672        -0.743378        -0.683753
 H         1.645233         1.345015         1.877439
 H         2.575555        -0.274075         1.887046
 H         4.891140         2.388634         0.806471
 H         2.042584         2.907244        -0.215264
 H         3.260625         2.429563        -1.395535
 H         1.544517         0.677443        -2.195484
 H         3.942095        -0.365571        -1.354396
