19
Iteration:  2697charge 0 multiplicity 1
 C        -0.054191        -0.468536         0.155990
 C         1.357120         0.000844         0.130101
 C         2.120814         0.610852         1.345770
 C         3.200348         1.198878         0.406238
 O         4.466775         1.497525         0.932964
 C         2.610620         2.076274        -0.587550
 C         1.961971         0.874731        -1.153522
 C         3.141782         0.073512        -0.729700
 O         2.367558        -1.064707        -0.250305
 H        -0.243305        -1.331071         0.874167
 H        -0.666218         0.319162         0.684224
 H        -0.453483        -0.750004        -0.863720
 H         1.741159         1.219465         2.066820
 H         2.702243        -0.175899         1.993142
 H         4.501361         1.093612         1.748465
 H         2.082448         3.032448        -0.352978
 H         3.517126         2.437605        -1.110574
 H         1.372009         0.706633        -2.095020
 H         3.991769        -0.116359        -1.492793
