19
Iteration:   952
 C        -0.065821        -0.394838         0.202527
 C         1.346237        -0.053197         0.066749
 C         2.003393         0.757908         1.173059
 C         3.267813         1.095920         0.416650
 O         4.490544         1.428029         1.054325
 C         2.712276         2.166886        -0.630449
 C         1.976977         0.887335        -1.159888
 C         3.199130        -0.027274        -0.662339
 O         2.312820        -1.159668        -0.225912
 H        -0.291516        -0.844359         1.187754
 H        -0.660819         0.535641         0.199012
 H        -0.434663        -1.103349        -0.510381
 H         1.374949         1.694221         1.624510
 H         2.126879         0.030337         1.985445
 H         4.365236         2.141282         1.613976
 H         2.096176         3.039612        -0.331407
 H         3.572537         2.298142        -1.351958
 H         1.604770         0.787385        -2.164797
 H         4.073181        -0.321510        -1.195334
