19
Iteration:   193charge 0 multiplicity 1
 C        -0.145986        -0.316854        -0.070069
 C         1.297640         0.046892         0.043557
 C         2.124419         0.724573         1.347140
 C         3.223068         1.121789         0.428448
 O         4.514936         1.345322         0.984514
 C         2.702084         2.115178        -0.576181
 C         1.942114         0.784060        -1.157424
 C         3.162059         0.012632        -0.630620
 O         2.333378        -1.096280        -0.078423
 H        -0.445641        -0.920593         0.863673
 H        -0.824092         0.543756        -0.194445
 H        -0.028613        -0.951661        -1.095069
 H         1.654289         1.528304         2.024559
 H         2.492412        -0.163040         1.985353
 H         4.771812         2.268973         1.363516
 H         2.079915         2.941415        -0.171239
 H         3.457277         2.449633        -1.326441
 H         1.493020         0.510158        -2.103334
 H         4.066840        -0.304568        -1.267062
