19
Iteration:  1915
 C        -0.069590        -0.427295         0.181993
 C         1.383883        -0.088211         0.106268
 C         2.048894         0.741282         1.214683
 C         3.281482         1.154030         0.408335
 O         4.493229         1.570864         1.008763
 C         2.604555         2.103027        -0.516903
 C         1.973789         0.852439        -1.073608
 C         3.172533        -0.044271        -0.800667
 O         2.327355        -1.122333        -0.280740
 H        -0.308054        -0.936809         1.113524
 H        -0.570104         0.468602        -0.028626
 H        -0.321189        -1.204844        -0.564629
 H         1.508784         1.549817         1.591906
 H         2.282892         0.081476         2.162957
 H         4.641647         1.076875         1.835725
 H         2.051196         2.975518        -0.200371
 H         3.304297         2.547236        -1.229201
 H         1.340334         0.826151        -2.047186
 H         4.153371        -0.297529        -1.339677
