19
Iteration:   391
 C        -0.132275        -0.396901         0.274010
 C         1.407145         0.072869        -0.006379
 C         2.107277         0.749925         1.248917
 C         3.343945         1.091625         0.391054
 O         4.438411         1.510628         1.174253
 C         2.669306         2.020021        -0.620242
 C         2.011454         0.859210        -1.225321
 C         3.178433        -0.087898        -0.728788
 O         2.282460        -1.095158        -0.319480
 H        -0.426609        -0.784822         1.202377
 H        -0.650423         0.495726        -0.039289
 H        -0.436774        -1.172510        -0.526865
 H         1.435176         1.709573         1.615606
 H         2.207733         0.029574         2.096490
 H         4.272934         1.316484         2.051703
 H         2.066221         2.846647        -0.196297
 H         3.333334         2.564714        -1.309024
 H         1.550665         0.859721        -2.131492
 H         4.052728        -0.466545        -1.254221
