19
Iteration:  3586charge 0 multiplicity 1
 C        -0.080438        -0.589348         0.224750
 C         1.328113        -0.046717         0.036318
 C         2.116633         0.707460         1.349584
 C         3.238318         1.162085         0.434894
 O         4.460595         1.454711         0.970990
 C         2.590216         2.218805        -0.667035
 C         1.943187         0.908592        -1.186967
 C         3.178536         0.072602        -0.711862
 O         2.391924        -1.040288        -0.157999
 H        -0.649502        -0.709360         1.242107
 H        -0.904467         0.026834        -0.135690
 H        -0.064366        -1.567442        -0.438078
 H         1.713605         1.467130         2.021057
 H         2.429977        -0.069490         1.926642
 H         4.957697         0.647903         0.873676
 H         2.021479         3.110878        -0.298040
 H         3.414280         2.518980        -1.355037
 H         1.485956         0.722995        -2.124394
 H         4.136573        -0.218314        -1.284906
