19
Iteration:  3834
 C        -0.070740        -0.438732         0.278512
 C         1.400841        -0.031472         0.081883
 C         2.103568         0.678158         1.242018
 C         3.323282         1.166077         0.365414
 O         4.522052         1.500337         0.991077
 C         2.542240         2.147881        -0.574844
 C         1.899586         0.796999        -1.132585
 C         3.163339        -0.003860        -0.766360
 O         2.401810        -1.096179        -0.271284
 H        -0.373739        -0.866076         1.239820
 H        -0.786330         0.347643        -0.108536
 H        -0.399583        -1.253399        -0.356670
 H         1.481114         1.422731         1.402849
 H         2.289412         0.058847         2.145961
 H         4.288370         1.749049         1.916559
 H         1.839673         2.833369        -0.073976
 H         3.217147         2.708250        -1.213042
 H         1.177589         0.854450        -1.917036
 H         4.108473        -0.350604        -1.300324
