19
Iteration:  3336
 C        -0.070494        -0.439826         0.169766
 C         1.387115        -0.048973         0.123348
 C         2.136460         0.632000         1.296431
 C         3.313966         1.149561         0.411310
 O         4.534365         1.602021         0.977987
 C         2.554274         2.115691        -0.541400
 C         1.889847         0.879280        -1.127872
 C         3.092635        -0.016203        -0.817697
 O         2.366850        -1.099559        -0.258083
 H        -0.396032        -0.863431         1.163453
 H        -0.777238         0.218067        -0.189119
 H        -0.159273        -1.207752        -0.646065
 H         1.599542         1.457147         1.925791
 H         2.445733        -0.214837         1.999859
 H         4.650531         1.341902         1.935901
 H         1.931152         2.792035         0.042112
 H         3.141220         2.575444        -1.326212
 H         1.450851         0.630396        -2.015929
 H         4.009998        -0.266533        -1.392451
