19
Iteration:  4623
 C        -0.046818        -0.475801         0.270418
 C         1.372843        -0.018196         0.063971
 C         2.091192         0.648644         1.319889
 C         3.303206         1.141296         0.406268
 O         4.512864         1.531634         0.940925
 C         2.631523         2.160679        -0.568627
 C         1.895618         0.895110        -1.102389
 C         3.148027        -0.038004        -0.760406
 O         2.331034        -1.098506        -0.312974
 H        -0.491784         0.230347         0.978965
 H        -0.784227        -0.435996        -0.533594
 H        -0.005951        -1.494029         0.557503
 H         1.443880         1.412579         1.782142
 H         2.332428        -0.186348         2.097165
 H         4.445836         1.862808         1.919593
 H         2.002296         3.004561        -0.280259
 H         3.329937         2.373201        -1.411242
 H         1.517678         0.767786        -2.131412
 H         3.922462        -0.474740        -1.395112
