19
Iteration:  1532charge 0 multiplicity 1
 C        -0.056635        -0.424750         0.238641
 C         1.364935        -0.003970         0.080962
 C         2.031966         0.672071         1.237276
 C         3.240282         1.169009         0.392292
 O         4.434420         1.530186         1.113377
 C         2.758241         2.079771        -0.621891
 C         1.916210         0.860101        -1.142593
 C         3.159919         0.054389        -0.764841
 O         2.358604        -1.129527        -0.292650
 H        -0.296248        -0.614230         1.370179
 H        -0.684194         0.424393        -0.073442
 H        -0.344014        -1.309342        -0.305982
 H         1.492379         1.476576         1.723183
 H         2.317279        -0.041758         1.968257
 H         4.773493         0.714904         1.572176
 H         2.182759         2.927717        -0.351741
 H         3.505428         2.242411        -1.376379
 H         1.360185         0.828122        -2.073724
 H         3.982716        -0.180137        -1.434999
