19
Iteration:  4731charge 0 multiplicity 1
 C        -0.064637        -0.477312         0.164568
 C         1.366716         0.013012         0.085836
 C         2.129933         0.609194         1.334262
 C         3.284954         1.106865         0.405836
 O         4.585032         1.493299         0.893860
 C         2.549834         2.110204        -0.510909
 C         1.957128         0.857595        -1.138336
 C         3.113329         0.041250        -0.730383
 O         2.290705        -1.103020        -0.220510
 H        -0.704877         0.435576        -0.011831
 H        -0.320210        -1.245087        -0.599220
 H        -0.382167        -0.693223         1.292810
 H         1.731155         1.474447         1.828575
 H         2.645845        -0.093158         2.084994
 H         4.448992         2.386361         1.422242
 H         2.097317         2.918896         0.096207
 H         3.183882         2.646918        -1.282309
 H         1.467413         0.791201        -2.142850
 H         3.734932        -0.250993        -1.608049
