19
Iteration:  2226charge 0 multiplicity 1
 C        -0.021703        -0.407357         0.278466
 C         1.340969        -0.062442         0.001458
 C         2.099888         0.671577         1.199388
 C         3.309868         1.192633         0.458756
 O         4.415283         1.609079         1.107302
 C         2.647241         2.111114        -0.625119
 C         1.981660         0.864439        -1.177468
 C         3.144976        -0.046031        -0.744553
 O         2.314865        -1.133823        -0.278585
 H         0.009820        -1.348505         0.871309
 H        -0.561856         0.229382         1.120956
 H        -0.513292        -0.692834        -0.655510
 H         1.535462         1.476348         1.486132
 H         2.408505        -0.142716         1.940228
 H         4.761441         0.943422         1.636689
 H         2.045069         2.905331        -0.095763
 H         3.384941         2.557493        -1.344795
 H         1.442414         0.717478        -2.128323
 H         3.726961        -0.375564        -1.595648
