19
Iteration:  4917
 C        -0.007575        -0.343989         0.277775
 C         1.427316        -0.075655         0.086454
 C         2.158479         0.532619         1.264217
 C         3.299653         1.140998         0.391654
 O         4.475063         1.435647         0.955879
 C         2.479792         2.150623        -0.554493
 C         1.851059         0.842791        -1.085670
 C         3.187398         0.074162        -0.784528
 O         2.383822        -1.138757        -0.281343
 H        -0.328250         0.708408         0.186299
 H        -0.530741        -0.884008        -0.522772
 H        -0.351063        -0.673601         1.312206
 H         1.617567         1.357714         1.799391
 H         2.552112        -0.203819         2.082743
 H         4.385137         2.387663         1.386648
 H         1.621816         2.829768        -0.280484
 H         3.203048         2.765919        -1.213314
 H         1.293461         0.924987        -2.036661
 H         4.005223        -0.083503        -1.468006
