19
Iteration:  3158
 C        -0.126021        -0.414534         0.203180
 C         1.362159        -0.106758         0.085770
 C         2.134438         0.628528         1.249918
 C         3.255389         1.155505         0.399805
 O         4.502399         1.442154         0.952231
 C         2.530937         2.134113        -0.536754
 C         1.914357         0.856234        -1.026693
 C         3.172806         0.051153        -0.759195
 O         2.477712        -1.091238        -0.309093
 H        -0.365261        -0.754169         1.311279
 H        -0.521995         0.624732         0.109977
 H        -0.438074        -1.401052        -0.370810
 H         1.406434         1.458943         1.515103
 H         2.257987        -0.058776         1.999910
 H         4.485664         2.258731         1.490631
 H         1.832322         2.879983        -0.064184
 H         3.323897         2.655465        -1.144533
 H         1.310729         0.914615        -1.979885
 H         4.064306        -0.100283        -1.368775
