19
Iteration:  4889charge 0 multiplicity 1
 C        -0.085278        -0.471015         0.267756
 C         1.343428         0.034501         0.095363
 C         2.141931         0.634303         1.301643
 C         3.293907         1.164310         0.380540
 O         4.574151         1.440834         0.921279
 C         2.493037         2.219727        -0.535334
 C         1.889600         0.787097        -1.141119
 C         3.156997         0.036517        -0.782521
 O         2.412165        -1.097354        -0.277367
 H        -0.720149         0.456266         0.277556
 H        -0.418782        -1.073174        -0.599886
 H        -0.317889        -0.818412         1.241201
 H         1.659542         1.393069         1.929361
 H         2.401442        -0.122800         1.971484
 H         4.573223         1.558423         1.926572
 H         1.591910         2.767862        -0.201965
 H         3.200613         2.749563        -1.130045
 H         1.433329         0.676053        -2.101493
 H         3.978712        -0.196525        -1.472427
