19
Iteration:  4181charge 0 multiplicity 1
 C         0.005598        -0.492063         0.256612
 C         1.386095        -0.005395         0.065524
 C         2.046527         0.721397         1.282088
 C         3.246060         1.184112         0.404944
 O         4.485138         1.400367         0.959164
 C         2.602825         2.118681        -0.683768
 C         1.892520         0.838478        -1.210963
 C         3.128990         0.063090        -0.637060
 O         2.409892        -1.004921        -0.184114
 H         0.023492        -1.400017         0.944970
 H        -0.762518         0.297297         0.463852
 H        -0.365913        -0.838765        -0.687936
 H         1.383195         1.548542         1.726863
 H         2.320924         0.219028         2.157769
 H         4.764999         0.635462         1.484944
 H         1.986499         2.924451        -0.225573
 H         3.256076         2.446905        -1.514744
 H         1.274385         0.603244        -2.140016
 H         4.056206        -0.143104        -1.153080
