19
Iteration:   927charge 0 multiplicity 1
 C        -0.074420        -0.434516         0.059188
 C         1.318713         0.056481         0.093221
 C         2.067289         0.761883         1.274817
 C         3.236410         1.184858         0.418324
 O         4.518085         1.285309         1.037846
 C         2.627403         2.055542        -0.701791
 C         1.975442         0.852862        -1.203247
 C         3.154665         0.001446        -0.663675
 O         2.374856        -0.992763        -0.090272
 H        -0.186773        -1.212687         0.763819
 H        -0.821676         0.313177         0.483627
 H        -0.408517        -1.026264        -0.882036
 H         1.414522         1.597079         1.794484
 H         2.305069        -0.059364         2.051975
 H         4.713195         2.038438         1.653041
 H         1.961968         2.892692        -0.468206
 H         3.523246         2.359737        -1.229002
 H         1.515112         0.752494        -2.176704
 H         3.991431        -0.327735        -1.282847
