19
Iteration:  4403charge 0 multiplicity 1
 C        -0.071850        -0.471955         0.209807
 C         1.317205        -0.007830         0.075174
 C         2.103726         0.646010         1.292972
 C         3.285299         1.157814         0.429974
 O         4.556408         1.430501         0.979266
 C         2.575219         2.169003        -0.646028
 C         1.854038         0.800789        -1.128288
 C         3.163603         0.060189        -0.767599
 O         2.390718        -1.082926        -0.238620
 H        -0.574310        -0.011938         1.034138
 H        -0.627066        -0.165950        -0.662277
 H        -0.197298        -1.589679         0.520309
 H         1.584318         1.524512         1.772879
 H         2.420081        -0.169995         1.993206
 H         4.493022         2.092766         1.756171
 H         2.153471         3.008044        -0.061904
 H         3.385783         2.644917        -1.204377
 H         1.363255         0.827884        -1.980666
 H         4.078818        -0.222501        -1.428907
