19
Iteration:   488
 C        -0.147760        -0.437583        -0.037358
 C         1.292437         0.107493         0.083698
 C         2.060082         0.720110         1.352294
 C         3.250044         1.162071         0.428297
 O         4.508292         1.339561         0.950027
 C         2.684381         2.102466        -0.604223
 C         1.994273         0.818949        -1.166592
 C         3.168618        -0.012179        -0.644629
 O         2.349690        -1.037924        -0.082631
 H        -0.056292        -1.363264         0.466005
 H        -0.871721         0.230291         0.361759
 H        -0.402784        -0.641303        -1.187482
 H         1.759014         1.577031         1.967517
 H         2.306361        -0.137172         1.947115
 H         4.670602         1.988624         1.595198
 H         2.078401         2.972540        -0.280048
 H         3.469053         2.583092        -1.205431
 H         1.568221         0.543689        -2.123138
 H         4.082479        -0.364966        -1.165170
