19
Iteration:  1881charge 0 multiplicity 1
 C        -0.077201        -0.455239         0.107241
 C         1.341896         0.028026         0.153766
 C         2.053705         0.652410         1.251926
 C         3.304284         1.200835         0.406364
 O         4.532761         1.450864         0.974597
 C         2.569998         2.165276        -0.658542
 C         1.940041         0.835982        -1.108580
 C         3.166950         0.028532        -0.726832
 O         2.371206        -1.051144        -0.142391
 H        -0.097913        -1.349484         0.759760
 H        -0.844011         0.150611         0.520336
 H        -0.328310        -0.721866        -0.911360
 H         1.541154         1.273270         1.860223
 H         2.305712        -0.357476         1.838982
 H         4.483915         1.146267         1.970197
 H         1.899898         3.004491        -0.483826
 H         3.385259         2.309373        -1.374061
 H         1.391330         0.707565        -2.126584
 H         4.164991        -0.265496        -1.283861
