19
Iteration:  1588
 C        -0.084733        -0.407391         0.105416
 C         1.325548         0.043604         0.065000
 C         2.109428         0.594419         1.310456
 C         3.231222         1.119587         0.445061
 O         4.482951         1.460043         0.957673
 C         2.637153         2.156708        -0.630818
 C         1.960231         0.893022        -1.147920
 C         3.142074         0.000525        -0.665015
 O         2.388107        -1.055220        -0.177629
 H        -0.300990        -0.941401         1.124156
 H        -0.921588         0.247804        -0.049792
 H        -0.291420        -1.220335        -0.643395
 H         1.706987         1.463630         1.909797
 H         2.511357        -0.224609         1.786904
 H         4.633601         1.214348         1.974879
 H         1.945263         3.000261        -0.485588
 H         3.391635         2.598557        -1.331230
 H         1.423607         0.719344        -2.152480
 H         4.072742        -0.381797        -1.212726
