19
Iteration:  2293
 C        -0.069544        -0.493652         0.098577
 C         1.412458        -0.014390         0.091870
 C         2.013642         0.771839         1.293313
 C         3.343795         1.076370         0.370964
 O         4.561366         1.519243         0.954711
 C         2.582619         2.109043        -0.557144
 C         1.863172         0.869681        -1.092756
 C         3.141957        -0.014166        -0.689588
 O         2.374339        -1.049170        -0.207308
 H        -0.289328        -1.355805         0.806637
 H        -0.814448         0.226340         0.541640
 H        -0.043631        -0.967947        -0.897931
 H         1.440136         1.634707         1.376359
 H         2.137938         0.193147         2.234781
 H         4.845034         0.838596         1.722135
 H         1.885290         2.729173         0.015762
 H         3.206133         2.631686        -1.308096
 H         1.287890         0.882761        -2.022822
 H         3.881152        -0.231650        -1.423718
