19
Iteration:  1744charge 0 multiplicity 1
 C        -0.142073        -0.441038         0.104466
 C         1.390802        -0.034523         0.131043
 C         2.077724         0.611423         1.363512
 C         3.216230         1.131342         0.514583
 O         4.535563         1.477176         0.916491
 C         2.588884         2.169147        -0.663873
 C         1.945432         0.839562        -1.178620
 C         3.207247         0.078277        -0.658732
 O         2.350182        -1.068084        -0.235105
 H        -0.397343        -0.746887         1.148324
 H        -0.751809         0.485358        -0.351625
 H        -0.429518        -1.284107        -0.691914
 H         1.557167         1.371691         2.087188
 H         2.519295        -0.047060         1.978366
 H         4.626707         1.116184         1.729346
 H         2.050306         3.100459        -0.269527
 H         3.506438         2.308757        -1.311198
 H         1.614140         0.902480        -2.204271
 H         4.079731        -0.247336        -1.179583
