19
Iteration:  3895
 C        -0.051762        -0.679373         0.184929
 C         1.347123         0.010128         0.063525
 C         2.076273         0.777182         1.295062
 C         3.260999         1.192160         0.403200
 O         4.534256         1.355884         0.935199
 C         2.661714         2.149445        -0.620775
 C         1.912895         0.887042        -1.128353
 C         3.109917         0.060335        -0.652116
 O         2.348814        -1.045951        -0.167022
 H         0.104257        -1.786362         0.421158
 H        -0.601187        -0.088886         0.916553
 H        -0.490616        -0.510173        -0.827658
 H         1.439185         1.706391         1.870695
 H         2.192871         0.105766         2.102579
 H         4.666979         2.392945         0.885616
 H         1.997610         2.979104        -0.347645
 H         3.461083         2.569987        -1.297111
 H         1.353407         0.706083        -2.060411
 H         3.901773        -0.050456        -1.309062
