19
Iteration:  4565
 C        -0.009200        -0.396994         0.191685
 C         1.394522        -0.059121         0.104487
 C         2.111776         0.658369         1.277100
 C         3.327993         1.141714         0.354224
 O         4.537565         1.537634         0.951893
 C         2.548202         2.056927        -0.505407
 C         1.840768         0.865762        -1.120722
 C         3.154247         0.115577        -0.769688
 O         2.329277        -1.132993        -0.225103
 H        -0.600645         0.429415         0.354431
 H        -0.191176        -0.883948        -0.742249
 H        -0.255383        -1.067194         1.088515
 H         1.391610         1.454677         1.601339
 H         2.268378        -0.030427         2.081824
 H         4.741633         0.921534         1.628560
 H         1.888901         2.805455        -0.076460
 H         3.164318         2.564298        -1.219154
 H         1.365099         0.746430        -2.037401
 H         3.900741        -0.244209        -1.503394
