19
Iteration:  3835charge 0 multiplicity 1
 C        -0.074634        -0.442978         0.276544
 C         1.398796        -0.030849         0.079016
 C         2.105227         0.680425         1.242685
 C         3.328676         1.173727         0.357900
 O         4.522351         1.495325         0.995019
 C         2.543097         2.145289        -0.563956
 C         1.897372         0.796308        -1.129222
 C         3.155735        -0.004758        -0.770183
 O         2.402495        -1.093415        -0.266999
 H        -0.351850        -0.856537         1.235710
 H        -0.789192         0.366614        -0.077536
 H        -0.382512        -1.286310        -0.409865
 H         1.463556         1.459548         1.363780
 H         2.292917         0.057764         2.182144
 H         4.297252         1.765618         1.861294
 H         1.846192         2.829818        -0.058360
 H         3.206123         2.688746        -1.229313
 H         1.182275         0.837170        -1.942337
 H         4.155264        -0.347666        -1.305522
