19
Iteration:  1837charge 0 multiplicity 1
 C        -0.061911        -0.484400         0.236891
 C         1.342564         0.005959         0.054095
 C         1.951389         0.724861         1.227098
 C         3.276478         1.173009         0.421104
 O         4.495996         1.534642         0.997463
 C         2.690941         2.079572        -0.586920
 C         1.988754         0.878879        -1.126666
 C         3.191630        -0.042186        -0.753559
 O         2.343619        -1.078991        -0.229570
 H         0.066266        -1.507545         0.625615
 H        -0.713147         0.078823         0.842047
 H        -0.532344        -0.534880        -0.716144
 H         1.338973         1.538895         1.452987
 H         2.165650         0.146362         2.255585
 H         4.714781         0.912439         1.810911
 H         2.131934         2.835109        -0.065865
 H         3.381770         2.376291        -1.371213
 H         1.374559         0.873323        -2.080801
 H         4.039744        -0.277917        -1.518922
