19
Iteration:  4094
 C        -0.097278        -0.466177         0.270236
 C         1.358856        -0.022324         0.072300
 C         2.155099         0.588108         1.242737
 C         3.264563         1.148742         0.401765
 O         4.476712         1.561306         0.973262
 C         2.592329         2.146964        -0.594514
 C         1.987670         0.817838        -1.159962
 C         3.153642         0.054774        -0.705169
 O         2.323864        -1.096754        -0.233818
 H        -0.568607        -0.376154         1.381371
 H        -0.686608         0.197219        -0.501293
 H        -0.122808        -1.529196         0.014879
 H         1.651210         1.454557         1.786976
 H         2.586547        -0.231279         1.696092
 H         4.476840         1.407810         1.862531
 H         2.060013         3.120356        -0.352013
 H         3.405630         2.353501        -1.326297
 H         1.418465         0.872456        -2.147765
 H         3.949675        -0.162133        -1.388278
