19
Iteration:  3813charge 0 multiplicity 1
 C        -0.028825        -0.398488         0.289249
 C         1.387521        -0.023045         0.047056
 C         2.140465         0.580776         1.320084
 C         3.263505         1.194230         0.394715
 O         4.433521         1.587755         0.979269
 C         2.560389         2.116284        -0.599704
 C         1.952031         0.810762        -1.170019
 C         3.117526         0.027281        -0.750090
 O         2.351300        -1.114846        -0.274335
 H        -0.211144        -0.487379         1.374020
 H        -0.656500         0.418431        -0.221078
 H        -0.324190        -1.393390        -0.151226
 H         1.622822         1.318145         1.907522
 H         2.571417        -0.324625         1.928084
 H         4.623198         1.068788         1.882722
 H         1.954788         2.980668        -0.296407
 H         3.269017         2.392044        -1.367188
 H         1.685730         0.651110        -2.204332
 H         4.150656        -0.124465        -1.324551
