19
Iteration:  4573charge 0 multiplicity 1
 C        -0.035568        -0.379879         0.176129
 C         1.442428        -0.054887         0.129528
 C         2.161894         0.673585         1.250935
 C         3.290505         1.145909         0.376077
 O         4.522774         1.503881         0.947263
 C         2.465021         2.140843        -0.529161
 C         1.881819         0.827946        -1.070936
 C         3.165370         0.050365        -0.811267
 O         2.359706        -1.165790        -0.210637
 H        -0.607200         0.600390         0.438377
 H        -0.529518        -0.690667        -0.790235
 H        -0.276022        -1.183411         0.927923
 H         1.575568         1.562552         1.529589
 H         2.222063        -0.006393         2.059771
 H         4.692003         1.020943         1.772365
 H         1.758275         2.893978        -0.037398
 H         3.241452         2.756666        -1.056459
 H         1.370382         0.691516        -2.115701
 H         3.940557        -0.151107        -1.584730
