19
Iteration:   686charge 0 multiplicity 1
 C        -0.094668        -0.395557         0.252305
 C         1.360676         0.061147         0.003220
 C         1.988909         0.683150         1.170722
 C         3.337546         1.113314         0.413244
 O         4.466114         1.447554         1.128362
 C         2.713747         2.043807        -0.620389
 C         2.045526         0.864482        -1.258343
 C         3.197105        -0.071494        -0.687295
 O         2.255729        -1.069428        -0.223994
 H        -0.051127        -1.244657         0.944986
 H        -0.365447         0.498125         0.898279
 H        -0.689491        -0.686324        -0.787948
 H         1.433954         1.608473         1.480278
 H         2.164537         0.051695         2.075741
 H         4.252100         2.263533         1.578244
 H         2.007140         2.832285        -0.245772
 H         3.466664         2.599150        -1.208166
 H         1.463079         0.640478        -2.163933
 H         4.142429        -0.452238        -1.137538
