19
Iteration:   772charge 0 multiplicity 1
 C        -0.047761        -0.468485         0.056956
 C         1.341017         0.034449         0.069975
 C         2.053123         0.730672         1.292483
 C         3.277205         1.177302         0.425801
 O         4.545160         1.350319         0.949685
 C         2.655624         2.137208        -0.601091
 C         1.984140         0.846402        -1.175239
 C         3.197208         0.018181        -0.605329
 O         2.225323        -1.036022        -0.097375
 H        -0.477856        -0.855856         0.866732
 H        -0.729522         0.262323        -0.366625
 H        -0.150860        -1.145610        -0.848349
 H         1.508030         1.676516         1.713929
 H         2.370627        -0.164407         1.935957
 H         4.652383         1.729179         1.804395
 H         1.981580         2.959304        -0.382492
 H         3.411280         2.415359        -1.335157
 H         1.538400         0.615587        -2.171855
 H         3.999727        -0.476386        -1.221178
