19
Iteration:  4319
 C        -0.038277        -0.525494         0.176033
 C         1.337517        -0.008997         0.091428
 C         2.156045         0.694387         1.305451
 C         3.258283         1.179320         0.373526
 O         4.507778         1.465015         0.939002
 C         2.623853         2.164632        -0.622091
 C         1.938078         0.834607        -1.096147
 C         3.111883         0.008936        -0.690636
 O         2.316077        -1.058160        -0.236225
 H        -0.189139        -0.698879         1.267835
 H        -0.938260        -0.049540        -0.211572
 H        -0.113365        -1.460716        -0.403469
 H         1.667523         1.443049         1.841984
 H         2.569349         0.007779         2.090214
 H         4.260670         1.667218         1.911574
 H         2.200628         3.136276        -0.403169
 H         3.475448         2.341483        -1.341069
 H         1.273334         0.945744        -2.013169
 H         3.922339        -0.256349        -1.252100
