19
Iteration:  2601
 C        -0.055076        -0.518509         0.179806
 C         1.340803         0.007784         0.094730
 C         2.110201         0.700940         1.274836
 C         3.290813         1.121348         0.335509
 O         4.536197         1.531338         1.082727
 C         2.574064         2.103084        -0.585685
 C         1.919621         0.864383        -1.131474
 C         3.116022        -0.006851        -0.794063
 O         2.358673        -1.053938        -0.247006
 H        -0.249581        -1.193060         1.068703
 H        -0.703287         0.234036         0.451531
 H        -0.273519        -1.118873        -0.732638
 H         1.632204         1.607387         1.618635
 H         2.166694         0.106647         2.219488
 H         4.908049         0.715060         1.364301
 H         1.954452         2.915611        -0.080086
 H         3.321141         2.683602        -1.157704
 H         1.264077         1.101336        -2.017682
 H         4.064623        -0.199217        -1.404652
