19
Iteration:  2495charge 0 multiplicity 1
 C        -0.042339        -0.507669         0.290960
 C         1.366885         0.004797         0.053418
 C         2.088684         0.688466         1.284361
 C         3.286646         1.144456         0.377541
 O         4.466696         1.535651         1.082046
 C         2.668882         2.133510        -0.625246
 C         1.921488         0.870222        -1.172885
 C         3.109712         0.042388        -0.752255
 O         2.362621        -1.110250        -0.321324
 H         0.230570        -1.346695         0.947957
 H        -0.813725         0.277120         0.708138
 H        -0.616807        -0.861059        -0.602537
 H         1.417703         1.543490         1.751762
 H         2.371881         0.037442         2.065278
 H         4.582285         0.868078         1.801979
 H         2.037714         2.930746        -0.149271
 H         3.351946         2.308204        -1.518212
 H         1.345879         0.938050        -2.127096
 H         3.984530        -0.256610        -1.337539
