19
Iteration:  1650
 C        -0.090072        -0.475465         0.218896
 C         1.332517         0.019777         0.075017
 C         2.043063         0.707381         1.241029
 C         3.277045         1.156305         0.438695
 O         4.428450         1.491086         1.060146
 C         2.667368         2.159347        -0.634311
 C         1.999840         0.819197        -1.246510
 C         3.166062        -0.033538        -0.736174
 O         2.329375        -1.014963        -0.198748
 H         0.069783        -1.474641         0.588478
 H        -0.626899         0.217267         0.846272
 H        -0.520731        -0.492934        -0.726116
 H         1.651255         1.432638         1.903138
 H         2.404936        -0.101616         2.019695
 H         4.939654         0.647514         1.474477
 H         2.016704         2.908389        -0.255708
 H         3.484631         2.520728        -1.222480
 H         1.623885         0.662964        -2.244668
 H         4.032841        -0.410647        -1.257993
