19
Iteration:  4006charge 0 multiplicity 1
 C        -0.007602        -0.525697         0.131965
 C         1.348861        -0.011056         0.109256
 C         2.088619         0.725924         1.286596
 C         3.273876         1.129463         0.375384
 O         4.491214         1.588463         0.995516
 C         2.647749         2.138885        -0.618158
 C         1.943578         0.818191        -1.129979
 C         3.100704        -0.020580        -0.711395
 O         2.301436        -1.061165        -0.190197
 H         0.012645        -1.302887         0.976281
 H        -0.737883         0.092446         0.649162
 H        -0.327386        -1.037026        -0.729576
 H         1.495101         1.611044         1.653852
 H         2.379471         0.126009         2.059003
 H         5.068101         0.899447         1.195733
 H         2.019513         2.939269        -0.174394
 H         3.413195         2.580251        -1.275440
 H         1.346659         0.628993        -2.019493
 H         3.854310        -0.273932        -1.356885
