19
Iteration:  3522charge 0 multiplicity 1
 C        -0.079025        -0.477420         0.306625
 C         1.420765        -0.061979         0.065114
 C         2.115782         0.667400         1.252496
 C         3.242482         1.199980         0.390263
 O         4.459518         1.502034         1.028761
 C         2.634093         2.184369        -0.653038
 C         1.905054         0.810567        -1.145131
 C         3.174420        -0.008907        -0.786111
 O         2.372538        -1.062233        -0.260649
 H        -0.124994        -1.355597         1.070635
 H        -0.727251         0.313925         0.720944
 H        -0.417996        -0.674011        -0.764008
 H         1.454440         1.438411         1.821756
 H         2.487152        -0.213231         1.849235
 H         4.343782         1.568333         2.039350
 H         1.901817         2.916525        -0.241504
 H         3.373673         2.565095        -1.405089
 H         1.284111         0.648484        -2.007244
 H         4.111520        -0.257063        -1.354956
