19
Iteration:  4365charge 0 multiplicity 1
 C        -0.048291        -0.575565         0.289085
 C         1.396251         0.027782         0.054968
 C         2.062551         0.812173         1.218091
 C         3.268647         1.184716         0.358840
 O         4.493323         1.275869         0.979999
 C         2.598191         2.231563        -0.572716
 C         1.850392         0.865845        -1.148813
 C         3.228974         0.066478        -0.765650
 O         2.364974        -1.113422        -0.213137
 H        -0.354213        -0.314797         1.360320
 H        -0.864912        -0.263065        -0.421702
 H         0.082454        -1.602242         0.068165
 H         1.435140         1.663524         1.634623
 H         2.225884         0.155807         2.079153
 H         4.572623         1.981251         1.753258
 H         2.044277         3.009146         0.015215
 H         3.212364         2.765997        -1.352211
 H         1.394949         0.502158        -2.215571
 H         4.198679        -0.107067        -1.215047
