19
Iteration:   824charge 0 multiplicity 1
 C        -0.021984        -0.290469         0.179616
 C         1.384414        -0.091520        -0.006801
 C         2.057579         0.762749         1.231976
 C         3.294791         1.057448         0.356748
 O         4.455161         1.458006         1.170803
 C         2.668518         2.064622        -0.623353
 C         2.009023         0.808060        -1.193207
 C         3.095855        -0.047187        -0.737951
 O         2.339802        -1.093109        -0.221674
 H        -0.100074        -0.604863         1.395325
 H        -0.579239         0.651796         0.159784
 H        -0.600626        -0.983745        -0.383614
 H         1.553244         1.685698         1.497962
 H         2.377397         0.175096         2.092166
 H         4.048523         2.069004         1.871145
 H         1.941334         2.804973        -0.298130
 H         3.246525         2.620812        -1.369058
 H         1.513787         0.670888        -2.144918
 H         3.984940        -0.350325        -1.305340
