19
Iteration:  2987
 C        -0.045752        -0.504867         0.180415
 C         1.358750         0.014562         0.089948
 C         2.156959         0.579426         1.333317
 C         3.251233         1.164443         0.398453
 O         4.553197         1.514616         0.991884
 C         2.559200         2.172217        -0.609227
 C         1.879162         0.862204        -1.149127
 C         3.089791         0.001286        -0.728734
 O         2.350867        -1.043841        -0.271394
 H        -0.029290        -0.770309         1.216509
 H        -0.740198         0.269814        -0.213895
 H        -0.333530        -1.268604        -0.524077
 H         1.648659         1.334328         1.929546
 H         2.660012        -0.389414         1.880338
 H         4.465112         1.201030         1.999777
 H         1.986798         2.991897        -0.092837
 H         3.345179         2.623272        -1.271595
 H         1.448081         0.832168        -2.161135
 H         4.049390        -0.070166        -1.288426
