19
Iteration:  1937charge 0 multiplicity 1
 C        -0.052365        -0.424009         0.205722
 C         1.354502         0.047337         0.022836
 C         2.131905         0.660946         1.280835
 C         3.360108         1.149990         0.393677
 O         4.473765         1.596195         1.130866
 C         2.568798         2.095245        -0.622523
 C         1.949872         0.856592        -1.226994
 C         3.142561        -0.038049        -0.712370
 O         2.295066        -1.111839        -0.261145
 H        -0.063313        -0.693379         1.256156
 H        -0.817236         0.239960        -0.080772
 H        -0.230197        -1.436686        -0.218011
 H         1.612080         1.301520         1.829285
 H         2.226278        -0.240980         2.018989
 H         4.923642         0.743667         1.504775
 H         1.880795         2.789146        -0.108636
 H         3.128445         2.767476        -1.264218
 H         1.590599         0.716079        -2.309413
 H         3.940590        -0.348785        -1.450944
