19
Iteration:  3170
 C        -0.050152        -0.399588         0.236185
 C         1.436980        -0.092696         0.071914
 C         2.072359         0.617362         1.221832
 C         3.311821         1.150531         0.410076
 O         4.514974         1.478272         0.971385
 C         2.535144         2.166935        -0.472265
 C         1.890797         0.811154        -1.060498
 C         3.195666         0.074153        -0.797584
 O         2.396773        -1.142131        -0.295983
 H        -0.391503        -0.645199         1.336806
 H        -0.731647         0.421456        -0.105047
 H        -0.520801        -1.108122        -0.625601
 H         1.519620         1.523016         1.538389
 H         2.374497         0.190169         2.104056
 H         4.314641         2.088491         1.626478
 H         1.857685         2.837681         0.117796
 H         3.011661         2.724432        -1.310607
 H         1.375159         0.540394        -1.989643
 H         3.861708        -0.140935        -1.630133
