19
Iteration:  1062
 C        -0.086039        -0.532361         0.108780
 C         1.346549         0.107787         0.101149
 C         2.052176         0.755210         1.278960
 C         3.274544         1.167027         0.398378
 O         4.500226         1.383552         0.975053
 C         2.688063         2.166373        -0.631317
 C         2.058180         0.859533        -1.225386
 C         3.125129        -0.081367        -0.664984
 O         2.282788        -1.055361        -0.093719
 H        -0.233884        -1.518968         0.694576
 H        -0.705598         0.235976         0.533089
 H        -0.324175        -0.761790        -0.873508
 H         1.591022         1.767282         1.693893
 H         2.250895         0.109661         2.098702
 H         4.318021         1.366241         2.003240
 H         1.979871         2.979748        -0.592813
 H         3.456756         2.631094        -1.273889
 H         1.594522         0.797782        -2.269397
 H         4.000721        -0.412055        -1.311763
