19
Iteration:  1951charge 0 multiplicity 1
 C        -0.074512        -0.465374         0.269984
 C         1.349210         0.016145         0.017867
 C         2.127701         0.634137         1.208583
 C         3.217912         1.147675         0.415862
 O         4.417391         1.552715         1.101363
 C         2.622083         2.124841        -0.590425
 C         2.001339         0.818723        -1.187241
 C         3.201383        -0.000810        -0.776731
 O         2.317200        -1.037702        -0.229399
 H        -0.327403        -0.543787         1.266757
 H        -0.796585         0.280714        -0.132054
 H        -0.291343        -1.302860        -0.366309
 H         1.797948         1.508688         1.966839
 H         2.617089        -0.197187         1.731952
 H         4.969440         0.755401         1.255781
 H         1.908139         2.842655        -0.225667
 H         3.413951         2.321383        -1.272406
 H         1.471493         0.835344        -2.097447
 H         4.094759        -0.282497        -1.185052
