19
Iteration:  4679charge 0 multiplicity 1
 C         0.005008        -0.570485         0.274188
 C         1.403039         0.057545         0.125798
 C         2.070336         0.744936         1.178162
 C         3.263276         1.153515         0.414923
 O         4.520876         1.217409         0.958877
 C         2.595931         2.224895        -0.616801
 C         1.816862         0.893745        -1.171429
 C         3.103971         0.148362        -0.754491
 O         2.416376        -1.037570        -0.182636
 H        -0.835217         0.159230         0.525561
 H        -0.076631        -1.200309        -0.638037
 H        -0.041281        -1.110214         1.209092
 H         1.538034         1.545092         1.729323
 H         2.484969        -0.038262         1.960298
 H         4.400529         1.605901         1.865146
 H         1.835727         3.011836        -0.479468
 H         3.331029         2.504802        -1.446663
 H         1.198557         0.770964        -2.161290
 H         4.029495        -0.205321        -1.203786
