19
Iteration:  1731charge 0 multiplicity 1
 C        -0.054928        -0.437711         0.107230
 C         1.334762        -0.003936         0.077660
 C         2.157582         0.591930         1.349586
 C         3.244155         1.233304         0.427629
 O         4.519135         1.470381         0.961439
 C         2.631859         2.100660        -0.622195
 C         1.976725         0.894458        -1.164328
 C         3.097660         0.044303        -0.679270
 O         2.304957        -1.077556        -0.187993
 H        -0.479626        -0.903364         1.039491
 H        -0.759241         0.412341        -0.165628
 H        -0.047279        -1.315055        -0.681655
 H         1.536534         1.312549         1.922163
 H         2.395810        -0.277675         1.898020
 H         4.607685         1.129454         1.962453
 H         1.976844         2.982241        -0.460012
 H         3.379080         2.525678        -1.313606
 H         1.389401         0.649677        -2.161438
 H         4.120397        -0.118136        -1.182922
