19
Iteration:   774
 C        -0.038392        -0.478278         0.061371
 C         1.344683         0.037838         0.071516
 C         2.055781         0.726947         1.291353
 C         3.283028         1.178781         0.444226
 O         4.543985         1.353115         0.952013
 C         2.646683         2.109105        -0.618564
 C         1.992160         0.848183        -1.169616
 C         3.193400         0.032851        -0.603427
 O         2.220018        -1.031143        -0.101664
 H        -0.574309        -0.792732         0.920607
 H        -0.738923         0.330191        -0.350453
 H        -0.220692        -1.184916        -0.876944
 H         1.520437         1.635078         1.726984
 H         2.372488        -0.185022         1.875557
 H         4.645357         1.709625         1.789059
 H         1.969907         2.985584        -0.419150
 H         3.436599         2.445031        -1.332718
 H         1.589135         0.621810        -2.209251
 H         4.006610        -0.428554        -1.255756
