19
Iteration:  3926
 C        -0.016253        -0.520581         0.288945
 C         1.378851        -0.029308         0.072217
 C         2.050617         0.771225         1.259589
 C         3.309765         1.172726         0.349975
 O         4.500589         1.471661         1.034395
 C         2.597618         2.099097        -0.593286
 C         1.958120         0.836174        -1.126400
 C         3.163895        -0.023013        -0.763208
 O         2.353683        -1.092155        -0.218050
 H        -0.218615        -1.604296         0.213877
 H        -0.574045         0.053090         0.959786
 H        -0.735861        -0.152699        -0.537914
 H         1.497371         1.567027         1.633719
 H         2.241754        -0.009720         1.945012
 H         4.410435         2.300819         1.418289
 H         1.838910         2.811885        -0.244956
 H         3.193097         2.568570        -1.391884
 H         1.439372         0.682784        -2.100360
 H         3.895161        -0.217849        -1.618605
