19
Iteration:  4943
 C        -0.097814        -0.437945         0.280456
 C         1.378288         0.005095         0.098726
 C         2.164204         0.587445         1.286595
 C         3.353124         1.176608         0.414814
 O         4.500015         1.536880         1.006892
 C         2.588520         2.028058        -0.505628
 C         1.853874         0.881505        -1.130681
 C         3.149460         0.009549        -0.794832
 O         2.349935        -1.136156        -0.336228
 H        -0.760559         0.436959         0.452832
 H        -0.468908        -0.917452        -0.644539
 H        -0.219789        -1.139869         1.043402
 H         1.536457         1.307314         1.743927
 H         2.532087        -0.087391         1.990340
 H         4.723137         2.507740         0.820330
 H         1.969515         2.778991        -0.081561
 H         3.131637         2.552367        -1.280450
 H         1.217105         1.085965        -1.969652
 H         4.026539        -0.194489        -1.411094
