19
Iteration:  1191charge 0 multiplicity 1
 C        -0.057208        -0.440436        -0.007882
 C         1.349926         0.073852         0.089782
 C         2.033904         0.790009         1.264827
 C         3.347736         1.082807         0.425737
 O         4.553124         1.522201         0.982834
 C         2.634642         2.112398        -0.540279
 C         1.905222         0.865665        -1.093272
 C         3.157136        -0.062452        -0.767792
 O         2.286990        -1.170490        -0.095257
 H        -0.391575        -0.860252         0.934484
 H        -0.818674         0.314350        -0.313077
 H        -0.120218        -1.126493        -0.833143
 H         1.749212         1.776512         1.498869
 H         2.011028         0.206615         2.203576
 H         4.766341         0.890981         1.593980
 H         2.118949         2.799278         0.096392
 H         3.335743         2.518935        -1.269903
 H         1.272593         0.923876        -2.078955
 H         4.137987        -0.379598        -1.295213
