19
Iteration:  1787charge 0 multiplicity 1
 C        -0.000602        -0.449629         0.171666
 C         1.389846         0.002750         0.035101
 C         2.120970         0.725716         1.261804
 C         3.305966         1.110091         0.363911
 O         4.455240         1.555694         1.134105
 C         2.566274         2.143573        -0.576072
 C         1.958082         0.858929        -1.171249
 C         3.143458        -0.097214        -0.787398
 O         2.307265        -1.078085        -0.216599
 H        -0.173489        -0.890339         1.179655
 H        -0.643205         0.535496         0.193158
 H        -0.446426        -1.078652        -0.709729
 H         1.605116         1.663343         1.708303
 H         2.272924        -0.017542         1.945213
 H         4.978966         0.831633         1.459591
 H         1.795061         2.805451        -0.071273
 H         3.294714         2.588964        -1.288313
 H         1.328432         0.637451        -2.086535
 H         3.939051        -0.489196        -1.394001
