19
Iteration:  4163
 C        -0.068226        -0.465365         0.242955
 C         1.373594         0.002572         0.098198
 C         2.048305         0.707053         1.246882
 C         3.241571         1.184446         0.382688
 O         4.524577         1.416726         0.949091
 C         2.512305         2.177658        -0.625682
 C         1.956632         0.847488        -1.160438
 C         3.191135         0.057873        -0.765829
 O         2.407280        -1.094294        -0.127095
 H        -0.152324        -0.946418         1.208599
 H        -0.609725         0.509982         0.119746
 H        -0.391437        -1.287594        -0.576771
 H         1.600206         1.547691         1.803284
 H         2.371913        -0.187749         1.881783
 H         4.436085         0.966646         1.819788
 H         1.750867         2.934612        -0.343757
 H         3.336281         2.468363        -1.301807
 H         1.545606         0.676001        -2.122226
 H         4.100397        -0.223610        -1.478483
