19
Iteration:  4975charge 0 multiplicity 1
 C        -0.030734        -0.600776         0.257788
 C         1.338241         0.048713         0.148891
 C         2.124145         0.642703         1.345390
 C         3.325388         1.231624         0.381410
 O         4.494419         1.464410         1.036451
 C         2.627547         2.158055        -0.578691
 C         1.893378         0.901678        -1.160280
 C         3.084598         0.009607        -0.826822
 O         2.313042        -1.070412        -0.268992
 H        -0.826777        -0.000235         0.767234
 H        -0.324292        -0.842614        -0.791276
 H         0.127531        -1.479816         0.799844
 H         1.493667         1.352906         1.824030
 H         2.499148        -0.092064         2.030646
 H         5.198661         1.609969         0.458384
 H         1.980718         2.872081        -0.088816
 H         3.299408         2.634103        -1.352927
 H         1.314905         0.934834        -2.068072
 H         3.921516        -0.235848        -1.477642
