19
Iteration:  1697
 C        -0.114147        -0.500245         0.223573
 C         1.397445        -0.029547         0.055169
 C         2.077221         0.765606         1.211285
 C         3.369850         1.092217         0.395427
 O         4.483980         1.545591         1.088881
 C         2.662089         2.072593        -0.551687
 C         1.954950         0.894556        -1.157733
 C         3.112307        -0.024325        -0.790432
 O         2.323721        -1.085297        -0.241662
 H        -0.192645        -1.333038         0.993483
 H        -0.688160         0.410313         0.346264
 H        -0.519170        -0.840833        -0.790415
 H         1.609749         1.690507         1.395295
 H         2.161528         0.389079         2.198252
 H         4.424937         0.862728         1.814123
 H         1.998384         2.807497        -0.113746
 H         3.363079         2.487510        -1.276846
 H         1.295805         0.856853        -2.140564
 H         4.069511        -0.190766        -1.420776
