19
Iteration:  1934
 C        -0.039380        -0.426252         0.202088
 C         1.367845         0.054546         0.034259
 C         2.133265         0.640817         1.277457
 C         3.372470         1.145174         0.407446
 O         4.482662         1.601746         1.122044
 C         2.567243         2.129855        -0.620572
 C         1.938239         0.848138        -1.224671
 C         3.136937        -0.052540        -0.699140
 O         2.298262        -1.121961        -0.272878
 H        -0.105283        -0.705678         1.347958
 H        -0.879220         0.243096        -0.116053
 H        -0.272129        -1.397684        -0.313993
 H         1.483822         1.410255         1.733299
 H         2.159693        -0.141772         2.042987
 H         4.887081         0.761694         1.551059
 H         1.816659         2.743146        -0.028786
 H         3.180424         2.782299        -1.340009
 H         1.574045         0.706193        -2.276873
 H         3.901526        -0.391920        -1.521332
