19
Iteration:  2096
 C        -0.069219        -0.441617         0.246696
 C         1.337537         0.051596         0.059676
 C         2.182002         0.606292         1.258123
 C         3.236213         1.120886         0.399856
 O         4.390148         1.549622         1.079833
 C         2.641631         2.156512        -0.648454
 C         1.926762         0.825358        -1.238418
 C         3.180385        -0.017970        -0.680924
 O         2.353058        -1.026773        -0.248748
 H         0.136592        -1.229191         0.955083
 H        -0.853781         0.333132         0.522670
 H        -0.429293        -0.827981        -0.690630
 H         1.583804         1.361553         1.992130
 H         2.353656        -0.209423         2.027488
 H         4.852522         0.675593         1.484252
 H         1.975378         2.973683        -0.338027
 H         3.509427         2.538413        -1.223137
 H         1.673651         0.375098        -2.219862
 H         4.035623        -0.203907        -1.379322
