19
Iteration:  4585
 C        -0.093757        -0.345916         0.188546
 C         1.387284        -0.059857         0.089014
 C         2.150664         0.666033         1.303977
 C         3.284366         1.151255         0.388310
 O         4.500198         1.474196         0.942089
 C         2.442298         2.225624        -0.551859
 C         1.962246         0.815281        -1.103918
 C         3.137397        -0.082762        -0.793593
 O         2.458279        -1.112001        -0.244251
 H        -0.519986         0.523242         0.756136
 H        -0.483925        -0.456566        -0.836666
 H        -0.343554        -1.269712         0.848003
 H         1.692522         1.502252         1.874847
 H         2.618392         0.046924         1.996134
 H         4.487214         1.162660         1.819905
 H         1.723791         2.857014         0.056160
 H         2.891100         2.741276        -1.410647
 H         1.243663         0.728007        -1.977144
 H         4.075176        -0.315467        -1.357660
