19
Iteration:   739
 C        -0.091419        -0.459808         0.078178
 C         1.340498         0.013621         0.070869
 C         1.981976         0.842285         1.221221
 C         3.309865         1.122282         0.406280
 O         4.553636         1.317086         1.044718
 C         2.691816         2.084423        -0.581595
 C         1.909296         0.845921        -1.131289
 C         3.152355         0.013300        -0.706816
 O         2.368238        -1.076806        -0.110773
 H        -0.290082        -1.241241         0.649228
 H        -0.638542         0.466975         0.225507
 H        -0.212408        -0.852046        -1.009422
 H         1.530550         1.869496         1.580798
 H         2.054495         0.352464         2.249750
 H         4.522196         2.082040         1.591295
 H         2.076971         2.936491        -0.295327
 H         3.362043         2.310504        -1.398498
 H         1.438164         0.762437        -2.115021
 H         3.837374        -0.332931        -1.507221
