19
Iteration:   441charge 0 multiplicity 1
 C        -0.157050        -0.436942         0.152727
 C         1.347817         0.026809         0.060900
 C         2.034125         0.837445         1.248673
 C         3.258494         1.086494         0.410199
 O         4.475123         1.340241         1.056771
 C         2.704494         2.100601        -0.579117
 C         1.973112         0.809627        -1.163174
 C         3.139384         0.013902        -0.737000
 O         2.423747        -1.073578        -0.223768
 H        -0.333139        -0.833091         1.227369
 H        -0.817344         0.417378        -0.151075
 H        -0.314132        -1.261290        -0.537111
 H         1.487521         1.642725         1.453804
 H         2.185826         0.265157         2.159154
 H         4.397140         1.618728         2.039309
 H         2.223135         3.051827        -0.332189
 H         3.562203         2.419352        -1.179246
 H         1.460180         1.047011        -2.210302
 H         4.123152        -0.145356        -1.329624
