19
Iteration:  3542
 C        -0.027424        -0.567736         0.260732
 C         1.331220        -0.031794         0.118280
 C         2.090394         0.750420         1.227648
 C         3.346076         1.097717         0.357985
 O         4.480481         1.544635         1.032757
 C         2.614227         2.112741        -0.549197
 C         1.867768         0.932396        -1.164648
 C         3.152300         0.007202        -0.796558
 O         2.378575        -1.134771        -0.264892
 H        -0.089736        -0.917329         1.357139
 H        -0.722742         0.255314         0.499799
 H        -0.359251        -1.220361        -0.656863
 H         1.564608         1.693526         1.352610
 H         2.142396         0.235946         2.077884
 H         4.323644         1.442238         1.928900
 H         2.115421         2.962915        -0.016832
 H         3.330956         2.428922        -1.342273
 H         1.536342         1.004860        -2.143187
 H         3.880912        -0.304273        -1.610419
