19
Iteration:  4741
 C        -0.098575        -0.435458         0.159773
 C         1.352800        -0.036231         0.144023
 C         2.179363         0.625151         1.370671
 C         3.330944         1.127718         0.399602
 O         4.512865         1.531984         0.892470
 C         2.648801         2.101363        -0.529026
 C         1.930658         0.885479        -1.099819
 C         3.149728        -0.025081        -0.795278
 O         2.258466        -1.078181        -0.248235
 H        -0.744005         0.412306        -0.037889
 H        -0.419675        -1.238051        -0.504200
 H        -0.267991        -0.998363         1.175663
 H         1.672306         1.290609         2.031924
 H         2.530400        -0.307313         1.889848
 H         4.303793         2.446941         1.277041
 H         1.805826         2.709388        -0.159035
 H         3.300635         2.666681        -1.234810
 H         1.374860         0.879229        -2.053963
 H         4.138989        -0.285927        -1.307421
