19
Iteration:   725charge 0 multiplicity 1
 C        -0.079086        -0.421040         0.102108
 C         1.354847         0.007015         0.109419
 C         2.026272         0.749868         1.239960
 C         3.254776         1.164358         0.414314
 O         4.518267         1.292300         1.089474
 C         2.687374         2.145658        -0.720128
 C         1.949888         0.817290        -1.153044
 C         3.158729         0.013415        -0.677339
 O         2.339275        -1.040590        -0.166483
 H        -0.184220        -1.285343         0.807526
 H        -0.746878         0.290945         0.485094
 H        -0.550535        -0.616757        -0.759319
 H         1.286308         1.566688         1.420442
 H         2.270597         0.042884         2.020842
 H         4.611629         2.227713         1.565226
 H         2.250534         3.062893        -0.351942
 H         3.495644         2.315613        -1.430710
 H         1.451634         0.645110        -2.083604
 H         4.121155        -0.250218        -1.033402
