19
Iteration:   657charge 0 multiplicity 1
 C        -0.113145        -0.401942         0.076056
 C         1.348393         0.000364         0.112925
 C         2.067796         0.740529         1.252214
 C         3.317297         1.211850         0.455715
 O         4.512157         1.431253         1.069142
 C         2.709089         2.067799        -0.599490
 C         1.960253         0.812065        -1.161084
 C         3.123013        -0.032357        -0.723384
 O         2.310108        -1.126993        -0.213820
 H        -0.345337        -1.082581         1.009701
 H        -0.800867         0.509655         0.102700
 H        -0.505656        -0.715894        -0.837135
 H         1.514930         1.678162         1.451273
 H         2.450424         0.140139         2.076311
 H         4.279761         1.953387         1.788692
 H         2.217063         3.052162        -0.318453
 H         3.571943         2.302321        -1.285050
 H         1.405661         0.482676        -2.109053
 H         4.064192        -0.222162        -1.328452
