19
Iteration:  1401
 C        -0.116675        -0.427702         0.271066
 C         1.373810        -0.031142         0.025856
 C         2.038034         0.769608         1.218645
 C         3.287742         1.081712         0.431218
 O         4.479812         1.593475         1.122686
 C         2.701232         2.109983        -0.583685
 C         1.990911         0.860671        -1.151491
 C         3.156072        -0.037417        -0.849701
 O         2.309647        -1.174787        -0.283699
 H        -0.015158        -1.079141         1.140806
 H        -0.637229         0.445622         0.371574
 H        -0.527986        -0.910991        -0.492378
 H         1.520602         1.820788         1.426069
 H         2.067297         0.118561         2.136909
 H         4.613141         0.829145         1.858700
 H         2.183270         2.955432        -0.230634
 H         3.497418         2.425025        -1.212825
 H         1.490623         0.918624        -2.095547
 H         3.961261        -0.376491        -1.484594
