19
Iteration:   543
 C        -0.153541        -0.371105         0.243193
 C         1.398675         0.070297         0.065027
 C         2.037007         0.720307         1.222802
 C         3.315950         1.041891         0.409321
 O         4.425148         1.428026         1.204477
 C         2.708536         2.136165        -0.716196
 C         2.069603         0.842012        -1.183589
 C         3.176420        -0.065836        -0.748051
 O         2.305348        -1.095463        -0.248268
 H        -0.102987        -1.229409         0.822078
 H        -0.813092         0.354475         0.686651
 H        -0.583761        -0.524595        -0.866199
 H         1.502264         1.476155         1.549024
 H         2.254747        -0.000891         1.952944
 H         4.407652         2.329306         1.389277
 H         1.926918         2.785642        -0.308856
 H         3.429281         2.545000        -1.442462
 H         1.600764         0.601414        -2.077497
 H         4.019321        -0.395625        -1.320614
