19
Iteration:  3851
 C        -0.024128        -0.521617         0.195126
 C         1.364410        -0.044510         0.110757
 C         2.077245         0.777478         1.205309
 C         3.285106         1.126985         0.377559
 O         4.546971         1.407955         0.992600
 C         2.533506         2.126326        -0.566333
 C         1.879121         0.867010        -1.098524
 C         3.144799         0.041868        -0.773745
 O         2.393608        -1.087771        -0.190099
 H        -0.144984        -1.168052         1.139131
 H        -0.680555         0.345176         0.208363
 H        -0.355153        -1.186936        -0.657690
 H         1.605894         1.746353         1.842368
 H         2.367893         0.110184         2.014089
 H         4.421606         2.213163         1.623627
 H         2.016093         2.961030        -0.072814
 H         3.105224         2.559990        -1.429833
 H         1.604160         0.739308        -2.172344
 H         3.852735        -0.179969        -1.549134
