19
Iteration:   854charge 0 multiplicity 1
 C        -0.115901        -0.381580         0.200325
 C         1.323871         0.037011         0.049152
 C         2.043590         0.675325         1.184829
 C         3.265551         1.191200         0.398608
 O         4.467027         1.425738         1.063082
 C         2.719373         2.109509        -0.693536
 C         2.090225         0.814494        -1.131093
 C         3.160501        -0.045175        -0.636015
 O         2.288083        -1.073825        -0.202391
 H        -0.251659        -1.262606         0.864439
 H        -0.792016         0.371806         0.628144
 H        -0.428328        -0.867124        -0.670803
 H         1.541665         1.374073         1.774477
 H         2.467008        -0.014961         1.855573
 H         4.289108         1.957753         1.791907
 H         2.030273         2.994359        -0.656456
 H         3.485450         2.405706        -1.469911
 H         1.651487         0.699475        -2.077725
 H         4.037170        -0.346536        -1.089548
