19
Iteration:  2528charge 0 multiplicity 1
 C        -0.020976        -0.417620         0.169681
 C         1.394128        -0.036540         0.054391
 C         2.152055         0.637757         1.252837
 C         3.299803         1.164783         0.367354
 O         4.499287         1.524028         1.017053
 C         2.549100         2.132980        -0.506860
 C         1.886652         0.894893        -1.128573
 C         3.131816         0.017536        -0.762153
 O         2.358643        -1.151372        -0.258609
 H        -0.255553        -0.777286         1.179068
 H        -0.713037         0.507742         0.218983
 H        -0.236470        -1.268337        -0.496505
 H         1.485269         1.546323         1.683967
 H         2.451240        -0.040153         2.016683
 H         4.455663         1.181155         1.859853
 H         1.875776         2.853552         0.016385
 H         3.147764         2.539359        -1.402875
 H         1.316783         0.879820        -2.085648
 H         3.998308        -0.356128        -1.303468
