19
Iteration:  4072
 C        -0.019000        -0.499560         0.227102
 C         1.397404         0.009015         0.090057
 C         2.024182         0.750726         1.246061
 C         3.319431         1.152825         0.354525
 O         4.509436         1.483469         1.021216
 C         2.544956         2.102346        -0.577943
 C         1.902669         0.885165        -1.134450
 C         3.135438        -0.026798        -0.783229
 O         2.420899        -1.076983        -0.240697
 H        -0.339305        -0.332275         1.384634
 H        -0.787372         0.187658        -0.346213
 H        -0.133023        -1.558909         0.077984
 H         1.501723         1.729922         1.461231
 H         2.337316         0.122008         1.965992
 H         4.663858         0.763978         1.782357
 H         1.742984         2.765362        -0.150936
 H         3.154899         2.745215        -1.234314
 H         1.246087         0.649323        -2.049191
 H         4.031896        -0.304063        -1.262926
