19
Iteration:  3919charge 0 multiplicity 1
 C        -0.061620        -0.542840         0.258878
 C         1.363491        -0.036952         0.077724
 C         1.989879         0.792448         1.207807
 C         3.354781         1.166570         0.320860
 O         4.561134         1.451640         1.033007
 C         2.547338         2.103854        -0.552980
 C         1.943316         0.835558        -1.116152
 C         3.184000        -0.043500        -0.761594
 O         2.357800        -1.069125        -0.207439
 H         0.077128        -1.681574         0.286374
 H        -0.612586        -0.061654         1.145629
 H        -0.514939        -0.257123        -0.652466
 H         1.320641         1.666604         1.793543
 H         2.221782         0.120377         2.065015
 H         4.393995         2.438334         1.257352
 H         2.015685         2.999019        -0.170347
 H         3.215171         2.482026        -1.365422
 H         1.482432         0.965206        -2.082311
 H         3.808813        -0.347820        -1.511808
