19
Iteration:  1829charge 0 multiplicity 1
 C        -0.051017        -0.495493         0.214550
 C         1.320635        -0.046412         0.004333
 C         1.993019         0.662550         1.272919
 C         3.277650         1.203607         0.472634
 O         4.474827         1.552454         1.012923
 C         2.766911         2.109916        -0.649336
 C         1.927514         0.870164        -1.131367
 C         3.118785        -0.019050        -0.729400
 O         2.358410        -1.064283        -0.225404
 H        -0.115358        -1.375359         0.800351
 H        -0.442458         0.181716         0.957257
 H        -0.643406        -0.603938        -0.720358
 H         1.389822         1.633485         1.506790
 H         2.221956        -0.105684         2.118196
 H         4.774223         0.763321         1.676139
 H         2.261019         3.027823        -0.308305
 H         3.459440         2.407083        -1.416850
 H         1.414173         0.812245        -2.188238
 H         4.063979        -0.215273        -1.291281
