19
Iteration:  2055
 C        -0.108275        -0.499187         0.251052
 C         1.379616        -0.047930         0.076339
 C         2.044971         0.735693         1.244979
 C         3.301763         1.156742         0.394421
 O         4.494250         1.553366         1.044881
 C         2.670778         2.115329        -0.643292
 C         1.951734         0.837159        -1.074992
 C         3.166726         0.032000        -0.731149
 O         2.369421        -1.158380        -0.318813
 H        -0.397974        -1.560085         0.495806
 H        -0.566290         0.251635         0.786439
 H        -0.670319        -0.380937        -0.706483
 H         1.523705         1.680787         1.585303
 H         1.982098         0.232106         2.161333
 H         4.439213         1.309310         1.911018
 H         2.122742         2.877572        -0.113897
 H         3.409528         2.645106        -1.260212
 H         1.379895         0.665773        -2.049957
 H         4.036393        -0.247248        -1.451227
