19
Iteration:  2442
 C        -0.019149        -0.552413         0.156212
 C         1.375174         0.039123         0.083125
 C         2.056051         0.812878         1.222831
 C         3.303849         1.094674         0.404422
 O         4.551580         1.544299         1.001559
 C         2.540104         2.099605        -0.496473
 C         1.890250         0.843515        -1.081835
 C         3.149046        -0.003082        -0.739585
 O         2.367686        -1.124176        -0.248250
 H        -0.077054        -1.552630         0.500047
 H        -0.693855         0.265713         0.693091
 H        -0.486679        -0.449425        -0.837734
 H         1.579884         1.786828         1.454439
 H         2.061856         0.238402         2.075185
 H         4.921497         0.672012         1.385473
 H         1.941240         2.965735        -0.210668
 H         3.196923         2.661425        -1.185874
 H         1.309911         0.833683        -2.013992
 H         3.957269        -0.400291        -1.307686
