19
Iteration:  4833charge 0 multiplicity 1
 C        -0.027388        -0.637970         0.281674
 C         1.337748        -0.011565         0.165198
 C         2.085795         0.737028         1.314415
 C         3.277274         1.173265         0.327305
 O         4.548735         1.407131         1.078868
 C         2.615028         2.138554        -0.642857
 C         1.851267         0.938471        -1.170891
 C         3.110367         0.065254        -0.770573
 O         2.334053        -0.982822        -0.243140
 H        -0.868566         0.001802         0.705796
 H        -0.408423        -1.029270        -0.716577
 H         0.147793        -1.560414         0.765173
 H         1.412920         1.545212         1.525390
 H         2.460201         0.102356         2.097909
 H         5.232790         0.908204         0.750707
 H         2.083380         3.075267        -0.402413
 H         3.336875         2.371119        -1.453387
 H         1.513970         1.059401        -2.187472
 H         3.918081        -0.337732        -1.311735
