19
Iteration:   733
 C        -0.083058        -0.409731         0.089361
 C         1.366772        -0.043146         0.069888
 C         1.989234         0.795758         1.230954
 C         3.283567         1.160994         0.428737
 O         4.560305         1.293112         1.069357
 C         2.676672         2.113041        -0.633961
 C         1.900610         0.787864        -1.139215
 C         3.149554         0.005811        -0.705922
 O         2.345864        -1.015484        -0.133183
 H        -0.277450        -1.393327         0.778223
 H        -0.804965         0.397745         0.437767
 H        -0.199743        -0.760018        -0.966922
 H         1.515096         1.713590         1.430137
 H         2.159396         0.265822         2.150422
 H         4.415872         2.208283         1.541853
 H         2.309200         3.140075        -0.324838
 H         3.445495         2.337732        -1.423786
 H         1.468678         0.744063        -2.164637
 H         4.029996        -0.279713        -1.319909
