19
Iteration:  1040charge 0 multiplicity 1
 C        -0.080929        -0.382307         0.035498
 C         1.375343         0.025827         0.062449
 C         1.997823         0.780611         1.216135
 C         3.313351         1.135936         0.453067
 O         4.590613         1.381916         0.969667
 C         2.623413         2.068987        -0.619071
 C         1.879623         0.826263        -1.119597
 C         3.139630        -0.013654        -0.627087
 O         2.353759        -1.095528        -0.134726
 H        -0.128575        -1.192421         0.854712
 H        -0.767442         0.371971         0.353283
 H        -0.235285        -0.966090        -0.784512
 H         1.445158         1.867541         1.353256
 H         1.958532         0.328310         2.190476
 H         4.618024         1.458142         1.868786
 H         2.072439         2.885065        -0.113566
 H         3.136528         2.614273        -1.440156
 H         1.617341         0.732892        -2.208237
 H         4.156668        -0.234745        -1.062258
