19
Iteration:  2204
 C        -0.061168        -0.437774         0.243914
 C         1.381407        -0.071629         0.077791
 C         2.068868         0.730316         1.234611
 C         3.295853         1.078527         0.387470
 O         4.439758         1.600659         1.065485
 C         2.626779         2.118828        -0.528921
 C         1.956951         0.855192        -1.136433
 C         3.153188        -0.080532        -0.822121
 O         2.379603        -1.087764        -0.322294
 H        -0.184639        -1.037630         1.182205
 H        -0.712063         0.475581         0.757482
 H        -0.491107        -0.996998        -0.610695
 H         1.568602         1.681474         1.251956
 H         2.192806         0.008808         2.127780
 H         4.535024         0.970084         1.882734
 H         2.127946         3.034880        -0.096348
 H         3.322295         2.407575        -1.370656
 H         1.297245         0.855634        -2.034471
 H         4.132706        -0.165944        -1.276232
