19
Iteration:  3625
 C        -0.053987        -0.443785         0.138466
 C         1.419013        -0.058231         0.136807
 C         2.095534         0.755433         1.268386
 C         3.282771         1.128114         0.410852
 O         4.490669         1.503647         1.077016
 C         2.477240         2.166078        -0.600691
 C         1.948136         0.784651        -1.097311
 C         3.151206        -0.014314        -0.783196
 O         2.379123        -1.154115        -0.231827
 H        -0.216476        -0.832544         1.056686
 H        -0.446019         0.596272        -0.070005
 H        -0.388368        -1.122275        -0.551971
 H         1.673673         1.709685         1.542283
 H         2.374041         0.181297         2.294759
 H         5.099386         1.857631         0.397258
 H         1.848017         2.887456        -0.089630
 H         3.049240         2.693122        -1.347139
 H         1.187937         0.683074        -1.925677
 H         4.021873        -0.316877        -1.314438
