19
Iteration:   523
 C        -0.075130        -0.323034         0.118686
 C         1.375909        -0.051099        -0.031668
 C         2.050387         0.764123         1.163184
 C         3.282494         1.165880         0.483578
 O         4.512236         1.431278         1.112271
 C         2.644915         2.093539        -0.576214
 C         1.929272         0.783896        -1.168705
 C         3.189608        -0.058778        -0.660148
 O         2.300919        -1.142952        -0.229816
 H        -0.241875        -1.261797         0.632488
 H        -0.462128         0.359578         0.890754
 H        -0.785928        -0.378398        -0.823917
 H         1.554907         1.809406         1.423800
 H         2.124270         0.175237         2.089145
 H         4.782987         2.282650         1.387082
 H         2.053299         2.932760        -0.133806
 H         3.528359         2.314584        -1.206600
 H         1.531419         0.799180        -2.096085
 H         4.093029        -0.399026        -1.039217
