19
Iteration:  4442
 C        -0.010157        -0.473563         0.202274
 C         1.358450         0.014576         0.111392
 C         2.115245         0.637094         1.311018
 C         3.272779         1.164396         0.401335
 O         4.578819         1.549491         0.941044
 C         2.592557         2.122423        -0.513748
 C         1.917515         0.862772        -1.163245
 C         3.097287        -0.043996        -0.719711
 O         2.312114        -1.083224        -0.304199
 H        -0.635497         0.489912         0.304598
 H        -0.264541        -0.957634        -0.788459
 H        -0.296950        -1.193475         0.943786
 H         1.750898         1.468390         1.953551
 H         2.355560        -0.208965         1.930156
 H         4.488919         1.759478         1.829159
 H         1.845408         2.697034         0.062252
 H         3.348081         2.552906        -1.186394
 H         1.172092         0.526738        -2.089532
 H         3.820601        -0.242447        -1.518804
