19
Iteration:  1463charge 0 multiplicity 1
 C        -0.084193        -0.381095         0.088021
 C         1.369306        -0.070194         0.099905
 C         1.951190         0.715603         1.265394
 C         3.277958         1.168990         0.390856
 O         4.559093         1.478136         0.927488
 C         2.669188         2.100032        -0.612760
 C         1.926747         0.851615        -1.078572
 C         3.165688         0.031426        -0.686554
 O         2.395579        -1.112034        -0.149504
 H        -0.368005        -1.428600         0.399988
 H        -0.845061         0.294593         0.696179
 H        -0.499150        -0.483868        -1.001687
 H         1.421820         1.488567         1.670389
 H         2.162159        -0.050469         2.067741
 H         4.592515         1.086473         1.905951
 H         2.014543         2.898332        -0.124474
 H         3.485165         2.347195        -1.307242
 H         1.282329         0.905288        -1.973999
 H         4.134319        -0.156596        -1.190272
