19
Iteration:  1098charge 0 multiplicity 1
 C        -0.038760        -0.444500         0.226632
 C         1.321852         0.009766         0.025017
 C         2.068618         0.725021         1.181489
 C         3.304294         1.229171         0.433872
 O         4.446032         1.504152         1.121443
 C         2.774087         2.094966        -0.699403
 C         1.961544         0.853971        -1.088227
 C         3.114484        -0.086640        -0.729040
 O         2.302089        -1.115373        -0.245382
 H        -0.139736        -1.264807         0.925272
 H        -0.577053         0.370062         0.629213
 H        -0.621605        -0.529721        -0.661280
 H         1.459989         1.732900         1.419576
 H         2.024606         0.007548         2.079575
 H         4.401427         1.165014         2.111862
 H         2.142321         3.006585        -0.524130
 H         3.561383         2.107968        -1.513118
 H         1.707786         0.736760        -2.125955
 H         3.956678        -0.378799        -1.373590
