19
Iteration:  1635
 C        -0.077851        -0.472332         0.139194
 C         1.351984         0.045729         0.059744
 C         2.074187         0.758421         1.257949
 C         3.301046         1.129320         0.333101
 O         4.523916         1.547836         1.079978
 C         2.632249         2.086130        -0.564378
 C         1.989874         0.862603        -1.124622
 C         3.168514        -0.042485        -0.748588
 O         2.316654        -1.140073        -0.185853
 H        -0.142082        -1.453559         0.610985
 H        -0.843178         0.184774         0.695690
 H        -0.691689        -0.590208        -0.841312
 H         1.415435         1.782022         1.376864
 H         2.123902        -0.020684         2.081193
 H         4.810943         0.796398         1.594633
 H         1.987194         2.881763        -0.044812
 H         3.198325         2.671957        -1.345285
 H         1.398070         0.879182        -2.039791
 H         3.979274        -0.308254        -1.432019
