19
Iteration:   890charge 0 multiplicity 1
 C        -0.093707        -0.472647         0.018433
 C         1.343773         0.055197         0.141209
 C         1.937097         0.838298         1.213776
 C         3.317102         1.144836         0.448298
 O         4.575440         1.355352         0.955476
 C         2.675748         2.055377        -0.595294
 C         1.974815         0.839666        -1.079452
 C         3.140203        -0.038926        -0.672622
 O         2.343129        -1.044374        -0.118353
 H         0.122788        -1.469317         0.621488
 H        -0.830991         0.169571         0.454300
 H        -0.392800        -0.477845        -1.016888
 H         1.415942         1.717198         1.353941
 H         2.147636         0.304665         2.108033
 H         4.459550         1.907787         1.701468
 H         1.947591         2.857259        -0.332453
 H         3.417765         2.440648        -1.349245
 H         1.472489         0.755327        -2.088616
 H         3.965571        -0.494036        -1.344234
