19
Iteration:  1327
 C        -0.154638        -0.403168         0.003909
 C         1.365121         0.003574         0.067814
 C         2.029541         0.754685         1.285951
 C         3.333018         1.096488         0.412470
 O         4.534901         1.473398         0.916120
 C         2.618041         2.131179        -0.499889
 C         1.929141         0.820858        -1.049100
 C         3.195843         0.025321        -0.709846
 O         2.353071        -1.141981        -0.127117
 H        -0.364878        -1.005862         0.953183
 H        -0.723035         0.482283        -0.228878
 H        -0.335317        -1.075054        -0.869738
 H         1.544633         1.754957         1.538833
 H         2.165634         0.142091         2.071994
 H         4.925972         0.969810         1.678361
 H         2.046417         2.949083        -0.081108
 H         3.320656         2.423127        -1.268578
 H         1.410192         0.807822        -1.962211
 H         3.970292        -0.146433        -1.400644
