19
Iteration:   500charge 0 multiplicity 1
 C        -0.105186        -0.370342         0.051376
 C         1.304032         0.053267         0.117389
 C         1.915604         0.682647         1.320307
 C         3.275181         1.126723         0.413392
 O         4.522224         1.358764         0.968295
 C         2.684314         2.133747        -0.640802
 C         2.065945         0.800027        -1.150694
 C         3.182428        -0.019289        -0.634571
 O         2.370368        -1.067504        -0.149974
 H        -0.327320        -1.329213         0.436318
 H        -0.762087         0.238918         0.643102
 H        -0.489110        -0.408208        -1.091336
 H         1.404257         1.590911         1.849953
 H         2.188313        -0.061743         2.052276
 H         4.550190         2.288217         1.363947
 H         1.982417         2.838216        -0.160829
 H         3.483078         2.468617        -1.328096
 H         1.766521         0.821208        -2.125569
 H         4.016506        -0.243646        -1.257916
