19
Iteration:  1258
 C        -0.105442        -0.372390         0.307232
 C         1.417972        -0.079693         0.000810
 C         2.015251         0.729615         1.151544
 C         3.317013         1.122101         0.426959
 O         4.434284         1.540629         1.166926
 C         2.702124         2.150858        -0.613116
 C         2.039682         0.839251        -1.209175
 C         3.176799        -0.064342        -0.843832
 O         2.279834        -1.124061        -0.204073
 H        -0.038584        -1.284839         0.882221
 H        -0.459653         0.456986         0.856258
 H        -0.663808        -0.500046        -0.544739
 H         1.503015         1.709634         1.302565
 H         1.977532         0.184221         2.100839
 H         4.546633         0.781437         1.905816
 H         2.086248         2.892696        -0.209173
 H         3.425501         2.391130        -1.360707
 H         1.379590         0.891039        -2.190682
 H         4.016520        -0.338311        -1.604527
