19
Iteration:  3970
 C        -0.104846        -0.402209         0.238271
 C         1.362492        -0.077237         0.084412
 C         2.119297         0.634748         1.248541
 C         3.279166         1.170572         0.438608
 O         4.479591         1.587987         0.988450
 C         2.579723         2.118503        -0.670941
 C         1.958579         0.751739        -1.160015
 C         3.133735         0.015613        -0.748340
 O         2.393881        -1.107348        -0.199768
 H        -0.072081        -1.492168         0.425895
 H        -0.379199         0.334226         0.938474
 H        -0.797203        -0.067358        -0.612877
 H         1.597221         1.388483         1.707545
 H         2.430607        -0.047320         2.015509
 H         4.492128         1.481568         1.882738
 H         1.946077         2.843756        -0.171682
 H         3.334543         2.669744        -1.268760
 H         1.473441         0.573117        -2.122802
 H         4.021264        -0.162630        -1.395237
