19
Iteration:  3946
 C        -0.064108        -0.371267         0.284798
 C         1.378627        -0.051670         0.105723
 C         2.130036         0.617313         1.278383
 C         3.237701         1.181970         0.353631
 O         4.465951         1.490372         1.007252
 C         2.509631         2.127547        -0.680388
 C         1.935387         0.802592        -1.205595
 C         3.194131        -0.001568        -0.666929
 O         2.399624        -1.089953        -0.252802
 H         0.175421        -1.411223         0.272337
 H        -0.523573         0.101242         1.157491
 H        -0.792462        -0.115006        -0.582629
 H         1.557677         1.285949         1.809886
 H         2.608359        -0.071528         2.084412
 H         4.128249         2.051887         1.807578
 H         2.090231         3.109237        -0.440707
 H         3.392296         2.337447        -1.306875
 H         1.370581         0.753256        -2.169120
 H         4.245689        -0.356905        -1.155961
