19
Iteration:  3241
 C        -0.009088        -0.567293         0.218786
 C         1.382064        -0.023904         0.109759
 C         2.018950         0.809433         1.256535
 C         3.303537         1.119810         0.442093
 O         4.521994         1.515882         1.003246
 C         2.590990         2.145190        -0.561981
 C         1.886877         0.823460        -1.080816
 C         3.146564         0.011263        -0.867406
 O         2.370350        -1.063267        -0.259193
 H         0.164892        -1.487240         0.773458
 H        -0.806720        -0.053014         0.839141
 H        -0.519722        -0.700951        -0.697555
 H         1.439275         1.665428         1.352323
 H         2.041210         0.320855         2.303112
 H         4.796332         0.856792         1.584043
 H         2.152276         2.999661        -0.067375
 H         3.299467         2.387229        -1.361356
 H         1.333579         0.968140        -2.061556
 H         3.944973        -0.256481        -1.586966
