19
Iteration:  3781
 C        -0.051947        -0.481097         0.246597
 C         1.353366        -0.009224         0.095227
 C         2.077188         0.661414         1.287180
 C         3.366680         1.121272         0.328645
 O         4.449648         1.642780         1.060190
 C         2.592594         2.130878        -0.578635
 C         1.951394         0.841623        -1.107572
 C         3.095394        -0.032653        -0.787549
 O         2.366426        -1.139073        -0.245849
 H        -0.435886        -0.665141         1.236442
 H        -0.720287         0.335211        -0.170647
 H        -0.415860        -1.340500        -0.384662
 H         1.519718         1.546728         1.737643
 H         2.315187        -0.129262         2.170949
 H         5.244048         1.123288         0.934961
 H         1.959482         2.937691        -0.195013
 H         3.151268         2.526034        -1.420082
 H         1.616193         0.887894        -2.122905
 H         4.050501        -0.310763        -1.430974
