19
Iteration:  3849
 C        -0.042698        -0.513941         0.201155
 C         1.364106        -0.050761         0.110882
 C         2.080845         0.771965         1.198672
 C         3.289377         1.142402         0.366696
 O         4.547022         1.416443         0.994012
 C         2.534793         2.118842        -0.545998
 C         1.879024         0.868123        -1.100372
 C         3.140638         0.028512        -0.781960
 O         2.395385        -1.088082        -0.197318
 H        -0.123408        -1.044867         1.167588
 H        -0.668422         0.379656         0.238902
 H        -0.306198        -1.246214        -0.702145
 H         1.613121         1.711262         1.796806
 H         2.345966         0.129409         2.107066
 H         4.392489         2.198921         1.686924
 H         2.019087         2.945907        -0.043987
 H         3.057499         2.534946        -1.431443
 H         1.616384         0.692013        -2.179687
 H         3.983903        -0.190537        -1.589327
