19
Iteration:  3180
 C        -0.028227        -0.392673         0.215881
 C         1.398751        -0.090178         0.118241
 C         2.107751         0.657183         1.298663
 C         3.307357         1.141809         0.335332
 O         4.552763         1.497920         1.012262
 C         2.466352         2.138964        -0.492778
 C         1.891028         0.843639        -1.150083
 C         3.147881         0.023608        -0.787620
 O         2.375063        -1.134271        -0.301372
 H        -0.267595        -0.868978         1.238663
 H        -0.493735         0.593420        -0.028480
 H        -0.181816        -1.327185        -0.482481
 H         1.418216         1.528165         1.670945
 H         2.344217        -0.103388         1.954643
 H         4.366823         2.013141         1.814685
 H         1.876603         2.921186         0.059875
 H         3.102134         2.619454        -1.290014
 H         1.430646         0.839998        -2.178437
 H         4.032428        -0.155532        -1.401969
