19
Iteration:  3502charge 0 multiplicity 1
 C        -0.035197        -0.416183         0.237287
 C         1.394553         0.021205         0.033114
 C         2.145037         0.578371         1.300432
 C         3.233142         1.185517         0.383236
 O         4.508783         1.494764         0.991690
 C         2.467298         2.093328        -0.678561
 C         1.978117         0.835496        -1.156200
 C         3.102802         0.056388        -0.646373
 O         2.378631        -1.102989        -0.232836
 H         0.176629        -1.447020         0.592210
 H        -0.544736         0.276743         0.866703
 H        -0.613009        -0.308865        -0.684765
 H         1.648474         1.482532         1.870798
 H         2.708810        -0.309627         1.962716
 H         4.351058         1.613357         2.013498
 H         1.778549         2.927350        -0.450928
 H         3.278982         2.348637        -1.400551
 H         1.521373         0.670571        -2.179434
 H         4.024525        -0.018417        -1.223209
