19
Iteration:  2210charge 0 multiplicity 1
 C        -0.047502        -0.445003         0.302200
 C         1.436029        -0.052425         0.080107
 C         2.022981         0.728106         1.200411
 C         3.308025         1.069354         0.354124
 O         4.429618         1.631055         1.093103
 C         2.672947         2.107448        -0.518679
 C         1.937655         0.846457        -1.143954
 C         3.170464        -0.018428        -0.875177
 O         2.325001        -1.169116        -0.292216
 H        -0.166323        -1.225880         1.064579
 H        -0.508963         0.410286         0.574167
 H        -0.607490        -0.701076        -0.615278
 H         1.429343         1.718280         1.416466
 H         2.111768         0.186332         2.119277
 H         4.638971         0.967925         1.846741
 H         2.057235         2.887965        -0.073048
 H         3.344976         2.583292        -1.222164
 H         1.454242         0.909199        -2.113131
 H         4.124668        -0.201438        -1.417132
