19
Iteration:  1287
 C        -0.095394        -0.394370         0.154999
 C         1.347313         0.070417         0.037942
 C         2.139282         0.678210         1.269756
 C         3.298335         1.136601         0.412262
 O         4.437842         1.544566         1.072174
 C         2.696423         2.051724        -0.667083
 C         2.021617         0.817214        -1.148743
 C         3.165568        -0.006455        -0.677361
 O         2.237342        -1.098215        -0.219728
 H         0.170109        -1.227780         0.815729
 H        -0.901871         0.287001         0.650217
 H        -0.519100        -0.688758        -0.907359
 H         1.676774         1.471481         1.821116
 H         2.363879        -0.168748         2.108903
 H         4.505972         0.814501         1.715757
 H         2.052111         2.954777        -0.289954
 H         3.413546         2.439864        -1.455269
 H         1.509373         0.745396        -2.139022
 H         4.004102        -0.249491        -1.352386
