19
Iteration:  2825charge 0 multiplicity 1
 C         0.049105        -0.461422         0.214154
 C         1.362502         0.017519         0.072216
 C         2.149849         0.674597         1.264205
 C         3.334785         1.153647         0.345670
 O         4.513354         1.475177         1.032596
 C         2.513789         2.173042        -0.526200
 C         1.878882         0.842850        -1.179126
 C         3.128011         0.007976        -0.745172
 O         2.317162        -1.104504        -0.255249
 H         0.211673        -1.291713         0.895932
 H        -0.762014         0.303871         0.537796
 H        -0.405673        -0.868845        -0.675703
 H         1.430504         1.622129         1.556733
 H         2.308378        -0.124997         1.936677
 H         4.347222         1.300370         2.020356
 H         1.828947         2.896417        -0.003411
 H         3.295587         2.612594        -1.208255
 H         1.461487         0.791767        -2.207402
 H         3.954677        -0.315894        -1.455237
