19
Iteration:    65
 C        -0.121797        -0.312127         0.040740
 C         1.348981        -0.005241         0.060741
 C         2.038279         0.754616         1.267937
 C         3.225097         1.162088         0.478629
 O         4.469352         1.357715         1.079997
 C         2.746540         2.085108        -0.668535
 C         2.044669         0.893188        -1.192695
 C         3.103834        -0.067162        -0.644012
 O         2.319846        -1.147107        -0.087228
 H        -0.397526        -0.841399         0.884860
 H        -0.545365         0.635665        -0.127570
 H        -0.519580        -1.034632        -0.722430
 H         1.455259         1.525505         1.721801
 H         2.353355        -0.040375         1.914131
 H         4.911878         2.066456         0.544997
 H         2.189148         3.000879        -0.372657
 H         3.558961         2.382182        -1.364852
 H         1.635360         0.959666        -2.176641
 H         4.058377        -0.406043        -1.096953
