19
Iteration:  4941charge 0 multiplicity 1
 C        -0.098548        -0.419357         0.279576
 C         1.395075         0.002817         0.107068
 C         2.156799         0.592584         1.293241
 C         3.329226         1.164521         0.414179
 O         4.504080         1.542524         1.003115
 C         2.580776         2.036190        -0.496800
 C         1.869683         0.875779        -1.144871
 C         3.141098         0.003916        -0.811277
 O         2.367867        -1.132766        -0.340740
 H        -0.791003         0.439128         0.467686
 H        -0.464051        -0.935225        -0.645921
 H        -0.247694        -1.104391         1.082906
 H         1.507898         1.275587         1.775227
 H         2.525759        -0.134109         2.058571
 H         4.719081         2.443804         0.894420
 H         1.980868         2.798702        -0.021781
 H         3.143365         2.538968        -1.343393
 H         1.201856         0.999389        -1.966487
 H         3.947214        -0.208198        -1.406787
