19
Iteration:  1070
 C        -0.105701        -0.494387         0.139788
 C         1.297255         0.061975         0.121346
 C         2.101916         0.727518         1.302105
 C         3.258655         1.147114         0.421811
 O         4.470177         1.405724         1.016854
 C         2.727071         2.150994        -0.745272
 C         2.047385         0.902962        -1.254745
 C         3.103509        -0.047805        -0.696654
 O         2.313308        -1.043880        -0.104812
 H        -0.012782        -1.443724         0.710887
 H        -1.002583         0.086381         0.620943
 H        -0.410120        -0.779698        -0.960800
 H         1.674579         1.580909         1.661985
 H         2.234389         0.014160         2.104492
 H         4.454091         1.389965         2.052278
 H         2.017687         2.889429        -0.359433
 H         3.557715         2.456557        -1.327413
 H         1.707327         0.793455        -2.283939
 H         4.040140        -0.400172        -1.084380
