19
Iteration:  2122
 C        -0.075148        -0.487304         0.151321
 C         1.382954        -0.081946         0.077527
 C         2.033048         0.692786         1.260868
 C         3.279328         1.179079         0.435252
 O         4.533107         1.568479         1.006395
 C         2.660929         2.145463        -0.586713
 C         1.875258         0.920695        -1.079023
 C         3.176760        -0.056793        -0.727782
 O         2.343914        -1.096862        -0.232520
 H        -0.305218        -0.995277         1.085197
 H        -0.583536         0.355635        -0.061398
 H        -0.345629        -1.199462        -0.658817
 H         1.389471         1.401716         1.662477
 H         2.127725         0.115066         2.073419
 H         4.914526         0.648925         1.368879
 H         2.021527         2.954365        -0.240754
 H         3.366667         2.512743        -1.322473
 H         1.336041         0.894183        -2.038478
 H         4.009490        -0.217862        -1.436722
