19
Iteration:   197charge 0 multiplicity 1
 C        -0.130669        -0.313801        -0.066712
 C         1.278475         0.045874         0.037774
 C         2.086238         0.696141         1.378105
 C         3.238619         1.163885         0.439244
 O         4.540254         1.345083         1.002870
 C         2.700613         2.091795        -0.600557
 C         1.946408         0.765160        -1.144007
 C         3.166366         0.050044        -0.655736
 O         2.335302        -1.096844        -0.088409
 H        -0.410684        -0.809034         0.820841
 H        -0.739252         0.620536        -0.173450
 H        -0.129292        -1.040845        -0.973884
 H         1.654813         1.415047         2.007662
 H         2.358349        -0.139763         1.920161
 H         4.721001         2.228946         1.193084
 H         2.099459         2.925072        -0.201146
 H         3.487366         2.377180        -1.298603
 H         1.550880         0.432016        -2.096234
 H         3.922689        -0.223077        -1.290626
