19
Iteration:  3922charge 0 multiplicity 1
 C        -0.036914        -0.543775         0.279954
 C         1.370172        -0.040843         0.072227
 C         2.006122         0.801800         1.226037
 C         3.340013         1.172824         0.320577
 O         4.538596         1.455569         1.035336
 C         2.566650         2.094463        -0.561427
 C         1.956828         0.837894        -1.116787
 C         3.174693        -0.038946        -0.754716
 O         2.354812        -1.076780        -0.212925
 H        -0.026173        -1.613248         0.219791
 H        -0.639583         0.047723         1.047786
 H        -0.640643        -0.175550        -0.613918
 H         1.398146         1.584692         1.751987
 H         2.230672        -0.003285         2.071283
 H         4.369989         2.441924         1.328060
 H         1.931453         2.941813        -0.226184
 H         3.185207         2.506475        -1.359682
 H         1.457184         0.859243        -2.103075
 H         3.875230        -0.305892        -1.673623
