19
Iteration:  4755charge 0 multiplicity 1
 C        -0.102210        -0.411602         0.234853
 C         1.379151         0.045048         0.129610
 C         2.206539         0.524099         1.273445
 C         3.253305         1.141292         0.416970
 O         4.531741         1.574959         0.968862
 C         2.560273         2.135623        -0.582809
 C         1.917278         0.865144        -1.093376
 C         3.135173        -0.099347        -0.731291
 O         2.316723        -1.113796        -0.315275
 H        -0.831832         0.508377         0.228908
 H        -0.161498        -0.912175        -0.794044
 H        -0.439799        -1.032153         1.144287
 H         1.729596         1.365115         1.827894
 H         2.542450        -0.328548         2.002935
 H         4.505553         2.541812         1.162526
 H         2.189005         3.093663        -0.160282
 H         3.430060         2.423771        -1.260682
 H         1.196140         0.822606        -1.993185
 H         4.029542        -0.515158        -1.199328
