19
Iteration:  2184
 C        -0.043160        -0.493852         0.210458
 C         1.382533         0.014013         0.071949
 C         2.078182         0.643941         1.283812
 C         3.260603         1.193155         0.406919
 O         4.509013         1.496623         1.015144
 C         2.634085         2.132625        -0.645355
 C         1.902328         0.851816        -1.139072
 C         3.170843         0.090462        -0.717465
 O         2.323141        -1.123950        -0.231129
 H        -0.345908        -0.915802         1.205430
 H        -0.809747         0.402189         0.133125
 H        -0.229699        -1.153250        -0.656746
 H         1.452685         1.450702         1.932025
 H         2.505830        -0.295765         1.768191
 H         4.536291         0.994340         1.927950
 H         1.940789         2.903333        -0.328267
 H         3.391712         2.534560        -1.344368
 H         1.567249         0.737348        -2.185766
 H         4.011045        -0.049126        -1.463795
