19
Iteration:  4538
 C        -0.128671        -0.617903         0.253444
 C         1.300305         0.030571         0.106172
 C         2.156560         0.644997         1.308634
 C         3.299536         1.159932         0.416746
 O         4.479769         1.556175         0.958392
 C         2.696307         2.211570        -0.583760
 C         1.958990         0.970004        -1.116701
 C         3.147681         0.048969        -0.776150
 O         2.291727        -1.129469        -0.269296
 H        -1.022201         0.180045         0.065688
 H        -0.128094        -1.576218        -0.395841
 H        -0.275936        -0.870651         1.285542
 H         1.583421         1.405388         1.810413
 H         2.372299        -0.220937         2.038875
 H         4.944201         0.753961         1.159611
 H         1.975230         3.065709        -0.379568
 H         3.724433         2.386544        -1.121476
 H         1.379583         0.772211        -2.149072
 H         3.890437        -0.335602        -1.453873
