19
Iteration:  1135
 C        -0.111256        -0.327710         0.206001
 C         1.353477         0.060782         0.007615
 C         2.102621         0.689850         1.195891
 C         3.299655         1.076277         0.430027
 O         4.393446         1.550955         1.091147
 C         2.626565         2.054932        -0.646715
 C         2.038479         0.793423        -1.175044
 C         3.181084        -0.066653        -0.692050
 O         2.325912        -1.061161        -0.200638
 H        -0.187541        -0.885166         1.106701
 H        -0.661152         0.653824         0.341126
 H        -0.437401        -1.011831        -0.635085
 H         1.723564         1.540518         1.641749
 H         2.221118        -0.110734         1.994330
 H         4.827852         0.781911         1.559703
 H         1.996084         2.834961        -0.176162
 H         3.334981         2.559819        -1.308468
 H         1.732904         0.660633        -2.217349
 H         4.006580        -0.472079        -1.275120
