19
Iteration:   371charge 0 multiplicity 1
 C        -0.098314        -0.341343         0.088818
 C         1.368925        -0.045721         0.097895
 C         2.015824         0.667019         1.174682
 C         3.294858         1.131316         0.402917
 O         4.461852         1.565337         1.076183
 C         2.769953         2.105538        -0.559423
 C         1.964178         0.864484        -1.093465
 C         3.126945        -0.048132        -0.778111
 O         2.307240        -1.162354        -0.176655
 H        -0.218485        -1.004268         0.944076
 H        -0.742605         0.562116         0.131206
 H        -0.447339        -0.908413        -0.839892
 H         1.563612         1.640672         1.517606
 H         2.252803         0.112799         2.066030
 H         4.710172         1.074549         1.920446
 H         2.331970         3.059683        -0.247426
 H         3.527912         2.434702        -1.279578
 H         1.505684         0.702667        -1.994596
 H         3.858841        -0.367394        -1.420039
