19
Iteration:   680
 C        -0.064543        -0.378291         0.228697
 C         1.344006         0.008809        -0.006560
 C         1.946592         0.714032         1.181746
 C         3.358607         1.096517         0.421330
 O         4.498149         1.469322         1.121264
 C         2.736250         2.069277        -0.646750
 C         2.013658         0.871553        -1.177959
 C         3.198276        -0.114203        -0.657445
 O         2.283347        -1.102750        -0.247771
 H        -0.130872        -1.266608         0.966221
 H        -0.678670         0.455114         0.611186
 H        -0.630395        -0.514887        -0.583660
 H         1.595713         1.735921         1.372421
 H         2.107268         0.057438         2.021757
 H         4.084526         2.294307         1.631295
 H         1.962172         2.716526        -0.196426
 H         3.369983         2.666426        -1.326691
 H         1.356949         0.947873        -2.088088
 H         4.030879        -0.426933        -1.313059
