19
Iteration:  4237charge 0 multiplicity 1
 C        -0.095966        -0.520436         0.248226
 C         1.335701         0.074273         0.028215
 C         2.141580         0.692559         1.302498
 C         3.303968         1.182823         0.434647
 O         4.436483         1.618418         1.013631
 C         2.664763         2.088566        -0.682057
 C         1.966537         0.821191        -1.116908
 C         3.124644        -0.062243        -0.702717
 O         2.311148        -1.095315        -0.215111
 H         0.062083        -1.602222         0.376893
 H        -0.617063        -0.016143         1.095355
 H        -0.510740        -0.500995        -0.744038
 H         1.628862         1.564650         1.803264
 H         2.387025        -0.151859         1.874186
 H         4.997246         0.957474         1.304193
 H         2.039407         3.005019        -0.453437
 H         3.385163         2.287295        -1.503470
 H         1.368560         0.835696        -2.033903
 H         3.956303        -0.306117        -1.445982
