19
Iteration:  2563charge 0 multiplicity 1
 C        -0.105122        -0.459277         0.131645
 C         1.368857        -0.036671         0.130278
 C         2.122607         0.541848         1.370457
 C         3.264777         1.198242         0.438412
 O         4.530376         1.559909         0.915318
 C         2.586591         2.101145        -0.534686
 C         1.916909         0.919696        -1.166980
 C         3.129117         0.045784        -0.723599
 O         2.369785        -1.093551        -0.251562
 H        -0.284026        -0.762932         1.138639
 H        -0.804897         0.393884        -0.327542
 H        -0.335499        -1.275865        -0.559158
 H         1.539970         1.369679         1.875491
 H         2.427554        -0.172983         2.102258
 H         4.781226         0.808823         1.401451
 H         1.973768         2.999479        -0.289742
 H         3.305663         2.499553        -1.334000
 H         1.434283         0.871909        -2.119305
 H         4.114302        -0.163571        -1.068132
