19
Iteration:  3591charge 0 multiplicity 1
 C        -0.081859        -0.595370         0.186311
 C         1.303334        -0.031907         0.046165
 C         2.107763         0.713193         1.299317
 C         3.227881         1.178382         0.439943
 O         4.471871         1.459318         0.980780
 C         2.582856         2.181178        -0.640500
 C         1.947873         0.880685        -1.159885
 C         3.162844         0.067390        -0.716666
 O         2.425862        -1.026618        -0.156459
 H        -0.447165        -0.580437         1.206672
 H        -0.841760         0.140183        -0.197455
 H        -0.198757        -1.461690        -0.376261
 H         1.702320         1.524024         1.955900
 H         2.586008        -0.139244         2.004229
 H         5.083559         0.662340         0.695456
 H         2.012838         2.995705        -0.208118
 H         3.375785         2.477708        -1.340540
 H         1.228965         0.737708        -2.065406
 H         4.082845        -0.240501        -1.129149
