19
Iteration:  3069
 C        -0.012319        -0.558456         0.236306
 C         1.399664         0.020254         0.055317
 C         2.075702         0.709046         1.297882
 C         3.233901         1.184395         0.396584
 O         4.491254         1.341323         0.959235
 C         2.586566         2.191105        -0.663493
 C         1.862690         0.884482        -1.136580
 C         3.193232         0.053449        -0.692318
 O         2.395842        -1.057304        -0.246225
 H        -0.164208        -1.603973         0.642729
 H        -0.610807        -0.086310         1.070591
 H        -0.583713        -0.621198        -0.750547
 H         1.538689         1.440939         1.912148
 H         2.261935        -0.026284         1.915340
 H         4.409282         1.738763         1.855738
 H         2.046504         3.057681        -0.209226
 H         3.354098         2.637009        -1.320023
 H         1.271805         0.884313        -2.109171
 H         4.172423        -0.026170        -1.160221
