19
Iteration:  3226charge 0 multiplicity 1
 C        -0.042075        -0.594275         0.230839
 C         1.362963        -0.031680         0.075920
 C         2.067202         0.706538         1.259679
 C         3.280178         1.171718         0.402834
 O         4.534860         1.501723         0.948721
 C         2.653392         2.133884        -0.592422
 C         1.850107         0.956350        -1.124281
 C         3.104663         0.020100        -0.701268
 O         2.378714        -1.085187        -0.247545
 H        -0.072217        -1.587239         0.830532
 H        -0.618586         0.271168         0.586508
 H        -0.506622        -0.921056        -0.820724
 H         1.551137         1.579978         1.605909
 H         2.410127         0.022210         2.003083
 H         4.588015         1.229964         1.953421
 H         2.031729         2.972761        -0.207555
 H         3.373267         2.488083        -1.336075
 H         1.260020         0.898548        -1.988218
 H         4.009630        -0.213657        -1.278103
