19
Iteration:  3596charge 0 multiplicity 1
 C        -0.092101        -0.561931         0.149128
 C         1.328446         0.003173         0.087420
 C         2.094809         0.696943         1.267274
 C         3.223487         1.204484         0.405095
 O         4.498847         1.457528         0.992243
 C         2.580201         2.127957        -0.599100
 C         1.918654         0.844472        -1.144216
 C         3.130160         0.054852        -0.697806
 O         2.442617        -1.021159        -0.165818
 H        -0.162339        -0.646925         1.271414
 H        -0.679673         0.219762        -0.341661
 H        -0.352953        -1.574203        -0.345592
 H         1.613681         1.516658         1.791302
 H         2.517439        -0.051427         1.947484
 H         5.093745         0.855431         0.651572
 H         1.952268         2.939674        -0.180777
 H         3.312211         2.509183        -1.322128
 H         1.258550         0.817935        -1.951656
 H         4.136359        -0.247314        -1.164236
