19
Iteration:  2509
 C        -0.024490        -0.501319         0.277273
 C         1.382003        -0.023343         0.117920
 C         2.056991         0.733773         1.210441
 C         3.329115         1.134828         0.400140
 O         4.482475         1.537073         1.072695
 C         2.600798         2.110765        -0.539650
 C         1.933961         0.853302        -1.102422
 C         3.147209        -0.054080        -0.893255
 O         2.355359        -1.087918        -0.325165
 H        -0.271697        -1.132522         1.108944
 H        -0.596159         0.521329         0.539339
 H        -0.379754        -0.956782        -0.641851
 H         1.602168         1.653968         1.423873
 H         2.114334         0.154955         2.116840
 H         4.482953         1.091671         1.913485
 H         1.944652         2.917565        -0.150015
 H         3.238401         2.791935        -1.120046
 H         1.389723         0.701801        -2.008240
 H         3.926752        -0.225553        -1.605878
