19
Iteration:  1399
 C        -0.119601        -0.424534         0.280419
 C         1.369554        -0.041634         0.037535
 C         2.026491         0.773216         1.222474
 C         3.290382         1.068013         0.449745
 O         4.475043         1.591754         1.120839
 C         2.719583         2.093974        -0.606062
 C         1.983964         0.877162        -1.161213
 C         3.175516        -0.011174        -0.850928
 O         2.309763        -1.176914        -0.280237
 H        -0.042107        -1.080112         1.151597
 H        -0.707505         0.544169         0.316518
 H        -0.617321        -1.025331        -0.504812
 H         1.497952         1.712290         1.426302
 H         2.127886         0.087182         2.163248
 H         4.642290         0.842452         1.804537
 H         2.146520         2.945820        -0.185943
 H         3.521300         2.408834        -1.292523
 H         1.429478         0.971852        -2.125523
 H         4.052718        -0.310470        -1.480858
