19
Iteration:   522charge 0 multiplicity 1
 C        -0.083075        -0.326614         0.116846
 C         1.389336        -0.056788        -0.033973
 C         2.049976         0.764952         1.167530
 C         3.275700         1.157800         0.491694
 O         4.514828         1.428734         1.102116
 C         2.644273         2.098644        -0.576779
 C         1.927565         0.790939        -1.167333
 C         3.187836        -0.053977        -0.658068
 O         2.300560        -1.139985        -0.223091
 H        -0.212355        -1.247224         0.623064
 H        -0.470891         0.355651         0.862656
 H        -0.801678        -0.342837        -0.850368
 H         1.572719         1.738994         1.389193
 H         2.110875         0.185399         2.064034
 H         4.820964         2.318285         1.403923
 H         2.051080         2.936802        -0.158086
 H         3.529297         2.309370        -1.193145
 H         1.502977         0.779252        -2.088222
 H         4.109557        -0.411340        -1.008472
