19
Iteration:  4562charge 0 multiplicity 1
 C        -0.005098        -0.422933         0.208509
 C         1.384102        -0.050825         0.089336
 C         2.073808         0.645557         1.284096
 C         3.338577         1.130039         0.377965
 O         4.541043         1.559882         0.943663
 C         2.579781         2.055987        -0.511583
 C         1.850036         0.869078        -1.121164
 C         3.132536         0.099619        -0.755607
 O         2.327441        -1.101782        -0.239851
 H        -0.690218         0.518853         0.298548
 H        -0.124560        -1.021647        -0.746014
 H        -0.224959        -1.055919         1.106900
 H         1.435749         1.448420         1.689758
 H         2.390683        -0.014315         2.069773
 H         4.756611         0.786683         1.631878
 H         1.923962         2.828728         0.018417
 H         3.153460         2.463642        -1.410761
 H         1.263184         0.796496        -2.156355
 H         3.937064        -0.239619        -1.436524
