19
Iteration:  2994charge 0 multiplicity 1
 C        -0.054921        -0.486085         0.182539
 C         1.346831        -0.017352         0.123184
 C         2.112703         0.565951         1.337025
 C         3.257765         1.158066         0.422296
 O         4.527340         1.520749         0.973926
 C         2.592511         2.200654        -0.624911
 C         1.923045         0.875385        -1.123862
 C         3.145184         0.015329        -0.781698
 O         2.358322        -1.064960        -0.306364
 H        -0.431730        -0.875593         1.178298
 H        -0.699020         0.368608         0.104358
 H        -0.306947        -1.389237        -0.460254
 H         1.621235         1.308848         1.968065
 H         2.586455        -0.274389         2.067027
 H         4.523726         1.414434         1.975125
 H         1.932771         2.981259        -0.250687
 H         3.401827         2.504296        -1.277718
 H         1.192021         0.877764        -1.969972
 H         4.092887        -0.194324        -1.252542
