19
Iteration:   936charge 0 multiplicity 1
 C        -0.087081        -0.422618         0.154046
 C         1.366350         0.096018         0.051786
 C         1.950216         0.671173         1.308709
 C         3.278686         1.181130         0.415521
 O         4.486830         1.314472         1.019126
 C         2.701658         2.111103        -0.712609
 C         1.987456         0.785816        -1.166033
 C         3.163684        -0.001066        -0.683924
 O         2.367784        -1.005476        -0.133517
 H        -0.039899        -1.119641         1.007352
 H        -0.833139         0.402738         0.166319
 H        -0.386896        -0.875330        -0.862702
 H         1.428082         1.506512         1.684209
 H         2.202961        -0.042697         2.137811
 H         4.387463         2.125378         1.587917
 H         2.156492         2.915096        -0.213040
 H         3.475027         2.379042        -1.435530
 H         1.462591         0.627133        -2.146106
 H         4.102328        -0.172572        -1.314791
