19
Iteration:   311
 C        -0.082897        -0.398996         0.017202
 C         1.358729         0.056384        -0.000703
 C         1.921359         0.838710         1.234763
 C         3.306212         1.129952         0.388431
 O         4.539300         1.423873         1.083892
 C         2.632138         2.115019        -0.558383
 C         1.996396         0.878913        -1.175695
 C         3.107486        -0.094293        -0.636117
 O         2.374729        -1.140051        -0.108880
 H        -0.140149        -1.367803         0.597901
 H        -0.666831         0.273800         0.662929
 H        -0.510169        -0.524295        -0.914237
 H         1.576405         1.860348         1.600316
 H         2.259548         0.167098         2.101747
 H         5.131541         0.797935         0.762160
 H         1.919808         2.807159        -0.082785
 H         3.371870         2.551445        -1.234887
 H         1.355118         0.930878        -2.181083
 H         4.163130        -0.592135        -0.951988
