19
Iteration:  1862
 C        -0.031164        -0.539007         0.122971
 C         1.331707         0.002165         0.022781
 C         2.169173         0.791266         1.284893
 C         3.288416         1.171679         0.402456
 O         4.523414         1.453943         1.019684
 C         2.564875         2.152718        -0.611983
 C         1.950574         0.854233        -1.189996
 C         3.134252        -0.042142        -0.677363
 O         2.293372        -1.069898        -0.180672
 H         0.005090        -1.502433         0.537899
 H        -0.611357         0.188542         0.638598
 H        -0.560757        -0.555214        -0.847178
 H         1.726068         1.780366         1.804307
 H         2.401280         0.154571         2.240901
 H         4.534741         1.095623         1.928490
 H         1.874344         2.707998        -0.003928
 H         3.142338         2.716963        -1.315667
 H         1.460920         0.607734        -2.199150
 H         4.024378        -0.274611        -1.269501
