19
Iteration:  3707charge 0 multiplicity 1
 C        -0.015820        -0.536152         0.249619
 C         1.382571        -0.005539         0.049571
 C         2.018268         0.761269         1.241874
 C         3.314988         1.192290         0.384227
 O         4.485588         1.398780         1.081810
 C         2.585938         2.119524        -0.693205
 C         1.917243         0.850358        -1.159235
 C         3.156477        -0.022402        -0.697506
 O         2.382748        -1.073254        -0.191972
 H        -0.009934        -1.537592         0.726491
 H        -0.649221        -0.149312         1.047875
 H        -0.681600        -0.560511        -0.702294
 H         1.503398         1.804834         1.425396
 H         2.236784         0.368839         2.212129
 H         4.754510         2.392909         0.876924
 H         2.081992         2.888946        -0.070928
 H         3.157611         2.580227        -1.542925
 H         1.402778         0.853512        -2.133408
 H         3.956423        -0.417288        -1.388465
