19
Iteration:  1480
 C        -0.039715        -0.451038         0.061502
 C         1.402253         0.016719         0.061627
 C         2.050521         0.762146         1.273354
 C         3.285917         1.089771         0.438125
 O         4.529454         1.499169         0.957516
 C         2.582747         2.154558        -0.527861
 C         1.941240         0.856025        -1.103114
 C         3.143788        -0.055386        -0.699683
 O         2.327810        -1.111258        -0.188694
 H        -0.247301        -1.275077         0.692195
 H        -0.514330         0.311845         0.604686
 H        -0.386434        -0.609211        -0.963441
 H         1.308798         1.753826         1.309507
 H         2.039481         0.359769         2.269719
 H         4.926223         1.005022         1.793145
 H         1.983346         2.929061        -0.008220
 H         3.273156         2.403667        -1.348981
 H         1.557404         0.663710        -2.126038
 H         3.903729        -0.468546        -1.383327
