19
Iteration:  1574charge 0 multiplicity 1
 C        -0.067769        -0.448554         0.181427
 C         1.359860         0.020784         0.008245
 C         2.088649         0.659391         1.235601
 C         3.311442         1.188676         0.393748
 O         4.532381         1.465942         1.031273
 C         2.549180         2.144786        -0.566667
 C         1.955632         0.821638        -1.204030
 C         3.187027         0.001217        -0.710285
 O         2.288009        -1.070203        -0.180827
 H        -0.359591        -0.609541         1.259567
 H        -0.637804         0.450032        -0.120542
 H        -0.130792        -1.271143        -0.452364
 H         1.575238         1.314160         1.760648
 H         2.308637        -0.202910         1.899890
 H         4.388307         1.102655         1.853761
 H         2.096881         2.913293         0.005075
 H         3.294085         2.522840        -1.240014
 H         1.590419         0.770857        -2.207540
 H         4.098197        -0.220868        -1.237856
