19
Iteration:  1795charge 0 multiplicity 1
 C        -0.069835        -0.465554         0.196850
 C         1.365401         0.080030         0.091930
 C         2.152780         0.659157         1.264331
 C         3.301412         1.173628         0.385068
 O         4.394028         1.547946         1.127249
 C         2.665557         2.141039        -0.655386
 C         1.973861         0.783771        -1.132383
 C         3.132053        -0.050959        -0.770186
 O         2.326387        -1.056303        -0.259341
 H        -0.119774        -1.103590         1.057350
 H        -0.676316         0.378619         0.290417
 H        -0.459043        -0.993374        -0.672240
 H         1.692970         1.505078         1.788046
 H         2.276112        -0.141949         2.105616
 H         4.861116         0.679722         1.295632
 H         1.870605         2.752070        -0.253337
 H         3.206571         2.671840        -1.421164
 H         1.449544         0.772257        -2.178281
 H         4.073771        -0.477325        -1.271283
