19
Iteration:  1783charge 0 multiplicity 1
 C         0.001444        -0.419569         0.163646
 C         1.397303        -0.028784         0.022950
 C         2.085192         0.759526         1.234819
 C         3.314044         1.089642         0.375803
 O         4.478408         1.564623         1.122032
 C         2.523093         2.123157        -0.545527
 C         1.950533         0.883709        -1.189550
 C         3.151324        -0.093120        -0.785044
 O         2.301302        -1.101107        -0.195793
 H        -0.212162        -0.835377         1.134389
 H        -0.567142         0.439208         0.169572
 H        -0.303372        -1.082444        -0.602825
 H         1.606706         1.619158         1.623189
 H         2.377338        -0.079878         2.033067
 H         5.034415         0.801860         1.542173
 H         1.924577         2.876939        -0.062777
 H         3.263594         2.602234        -1.167105
 H         1.310779         0.678061        -2.111876
 H         3.970886        -0.451871        -1.514101
