19
Iteration:  3725
 C        -0.051993        -0.579542         0.205904
 C         1.357553         0.036760         0.081545
 C         2.067153         0.777569         1.230163
 C         3.235539         1.175789         0.346010
 O         4.465964         1.320447         1.040728
 C         2.590325         2.161119        -0.671460
 C         1.908978         0.820410        -1.174579
 C         3.144148         0.080341        -0.735003
 O         2.411485        -1.013535        -0.067707
 H        -0.026884        -1.521831         0.719329
 H        -0.718710         0.025637         0.875490
 H        -0.350661        -0.685628        -0.790692
 H         1.521471         1.474347         1.849627
 H         2.522072        -0.107681         1.935339
 H         5.015392         2.156006         0.684550
 H         1.872944         2.956846        -0.491129
 H         3.463964         2.457782        -1.231905
 H         1.438965         0.620660        -2.118008
 H         4.156017        -0.203795        -1.196806
