19
Iteration:  1319charge 0 multiplicity 1
 C        -0.106036        -0.381145        -0.000077
 C         1.328731        -0.047963         0.090512
 C         2.018527         0.711160         1.327445
 C         3.296368         1.151025         0.421136
 O         4.562098         1.502176         0.899254
 C         2.702162         2.078961        -0.554694
 C         1.956007         0.861100        -1.108251
 C         3.095812         0.029715        -0.650791
 O         2.381255        -1.134979        -0.146753
 H        -0.476411        -1.007855         0.857633
 H        -0.859341         0.503494         0.087950
 H        -0.322662        -1.115303        -0.917383
 H         1.360159         1.491093         1.621559
 H         2.257793         0.043055         2.196689
 H         4.652975         0.905210         1.734567
 H         2.112889         2.963501        -0.098122
 H         3.360741         2.472739        -1.386969
 H         1.326024         0.999537        -1.979364
 H         3.961221        -0.210782        -1.272406
