19
Iteration:   279
 C        -0.070190        -0.435967         0.194965
 C         1.316566         0.013155         0.034335
 C         2.057921         0.764008         1.232027
 C         3.291889         1.195460         0.380460
 O         4.364661         1.426107         1.263356
 C         2.802742         2.101175        -0.746710
 C         2.008239         0.883734        -1.135456
 C         3.110284        -0.008236        -0.663560
 O         2.290620        -1.114123        -0.265658
 H        -0.134992        -1.165505         1.032884
 H        -0.711962         0.391047         0.352289
 H        -0.510272        -0.797426        -0.699950
 H         1.495139         1.545332         1.883044
 H         2.506102         0.001523         1.959717
 H         5.106411         0.932908         0.807952
 H         2.326758         3.071105        -0.638055
 H         3.590716         2.263915        -1.505147
 H         1.583768         0.660695        -2.145359
 H         4.002764        -0.298937        -1.363947
