19
Iteration:  3083
 C        -0.035767        -0.578459         0.240606
 C         1.342778        -0.034158         0.117611
 C         1.970544         0.696944         1.241228
 C         3.274163         1.172102         0.417666
 O         4.559460         1.375990         0.964331
 C         2.615789         2.145865        -0.577067
 C         1.886634         0.937257        -1.082700
 C         3.132062         0.072800        -0.769249
 O         2.434160        -1.036568        -0.241782
 H         0.218229        -1.653105         0.528472
 H        -0.603009         0.107601         0.838094
 H        -0.558988        -0.569828        -0.853413
 H         1.398818         1.558668         1.367286
 H         2.313508         0.089194         2.121345
 H         4.470895         1.959393         1.802112
 H         2.059701         3.050812        -0.285337
 H         3.279253         2.206678        -1.437982
 H         1.339259         0.893524        -2.053022
 H         3.913387        -0.270559        -1.456498
