19
Iteration:   998
 C        -0.017617        -0.333154         0.158447
 C         1.348634         0.054906         0.006380
 C         2.176439         0.615678         1.234524
 C         3.267462         1.136086         0.390169
 O         4.443710         1.437484         1.079314
 C         2.637561         2.115593        -0.678680
 C         1.979039         0.844114        -1.190566
 C         3.130661        -0.021434        -0.628112
 O         2.300368        -1.114052        -0.161949
 H        -0.393412        -0.606701         1.217449
 H        -0.608243         0.496813        -0.128450
 H        -0.224560        -1.140427        -0.479509
 H         1.514662         1.498558         1.724430
 H         2.474917        -0.116699         1.984974
 H         4.172766         1.850525         1.921198
 H         1.956437         2.985683        -0.365444
 H         3.474582         2.348050        -1.472814
 H         1.398040         0.730445        -2.160511
 H         4.023425        -0.413342        -1.236260
