19
Iteration:  3821charge 0 multiplicity 1
 C        -0.049349        -0.422298         0.283564
 C         1.393467        -0.069207         0.104593
 C         2.091159         0.639336         1.270638
 C         3.240866         1.129950         0.427289
 O         4.484417         1.562276         0.981462
 C         2.529333         2.129758        -0.643261
 C         1.944622         0.889183        -1.159677
 C         3.192663         0.000111        -0.747641
 O         2.371816        -1.131383        -0.287715
 H        -0.280920        -0.370172         1.389021
 H        -0.598123         0.467963        -0.069414
 H        -0.174428        -1.293180        -0.248193
 H         1.699048         1.347154         1.892300
 H         2.428741        -0.175154         1.862522
 H         4.496977         1.362643         1.970979
 H         1.852535         2.899512        -0.236350
 H         3.267230         2.559617        -1.342875
 H         1.511124         0.686196        -2.129486
 H         3.944100        -0.187612        -1.433580
