19
Iteration:  1256charge 0 multiplicity 1
 C        -0.099952        -0.364375         0.307390
 C         1.418101        -0.079260         0.005894
 C         2.005854         0.722922         1.154586
 C         3.298989         1.145111         0.428257
 O         4.433732         1.529481         1.162824
 C         2.714703         2.125179        -0.624220
 C         2.035718         0.850441        -1.196607
 C         3.178935        -0.051573        -0.846206
 O         2.286567        -1.129180        -0.205867
 H        -0.021455        -1.221434         0.830998
 H        -0.439047         0.490319         0.924299
 H        -0.722249        -0.588163        -0.561261
 H         1.492315         1.669100         1.236149
 H         1.987375         0.144378         2.219682
 H         4.530588         0.806464         1.871005
 H         2.073141         2.892851        -0.196881
 H         3.460672         2.388521        -1.383242
 H         1.436097         0.874154        -2.206769
 H         4.009122        -0.288625        -1.605874
