19
Iteration:  3934
 C        -0.041143        -0.469051         0.259317
 C         1.395867        -0.000412         0.087536
 C         2.127113         0.694862         1.251573
 C         3.257250         1.162145         0.423994
 O         4.457791         1.483746         1.024875
 C         2.608543         2.126237        -0.670452
 C         1.936047         0.806309        -1.157838
 C         3.135301         0.014644        -0.759290
 O         2.363618        -1.109655        -0.228591
 H        -0.240190        -1.508678         0.423233
 H        -0.409826        -0.052033         1.237395
 H        -0.652962        -0.152099        -0.631992
 H         1.608776         1.554887         1.577017
 H         2.393955        -0.058279         2.099050
 H         4.395809         2.217012         1.561137
 H         1.865831         2.781898        -0.189141
 H         3.273271         2.635167        -1.364544
 H         1.430306         0.555630        -2.111882
 H         4.125875        -0.226552        -1.373432
