19
Iteration:  4572charge 0 multiplicity 1
 C        -0.028089        -0.384492         0.178754
 C         1.437532        -0.055975         0.129402
 C         2.160036         0.675356         1.252501
 C         3.294245         1.147739         0.367664
 O         4.523945         1.508118         0.946681
 C         2.473162         2.123091        -0.524281
 C         1.874137         0.834888        -1.073094
 C         3.168145         0.064549        -0.807583
 O         2.353495        -1.165926        -0.210438
 H        -0.628391         0.608616         0.436255
 H        -0.503252        -0.716876        -0.805288
 H        -0.268388        -1.148670         0.931248
 H         1.543018         1.535410         1.517137
 H         2.200278        -0.031816         2.079486
 H         4.721848         0.992261         1.798340
 H         1.768834         2.892014        -0.058161
 H         3.254894         2.761076        -1.054922
 H         1.365260         0.685555        -2.139220
 H         3.921731        -0.163394        -1.579812
