19
Iteration:  2301charge 0 multiplicity 1
 C        -0.045218        -0.535444         0.122289
 C         1.319170         0.007340         0.130439
 C         2.068138         0.739305         1.284982
 C         3.328122         1.111080         0.387898
 O         4.547582         1.500197         0.956363
 C         2.570047         2.102522        -0.557484
 C         1.923120         0.866451        -1.089437
 C         3.114939         0.028033        -0.745641
 O         2.372699        -1.039162        -0.207147
 H        -0.166530        -1.268590         0.900099
 H        -0.841409         0.331611         0.127936
 H        -0.285993        -0.985698        -0.843273
 H         1.434344         1.612301         1.479628
 H         2.212293         0.127789         2.315505
 H         4.818858         0.789769         1.671453
 H         1.915556         2.944125        -0.197631
 H         3.293422         2.614794        -1.248860
 H         1.531827         0.636492        -2.090532
 H         3.985170        -0.251646        -1.310582
