19
Iteration:  2910
 C        -0.054089        -0.572561         0.221436
 C         1.349234         0.030931         0.086462
 C         2.117680         0.637741         1.289650
 C         3.293862         1.172237         0.391797
 O         4.472963         1.509750         1.033219
 C         2.619486         2.163918        -0.621899
 C         1.910238         0.873228        -1.204449
 C         3.114867         0.020652        -0.720655
 O         2.343155        -1.055990        -0.226558
 H         0.026366        -1.399803         0.947087
 H        -0.836805         0.274420         0.583032
 H        -0.329104        -0.877276        -0.851306
 H         1.681860         1.331839         1.954437
 H         2.472637        -0.135944         2.083090
 H         4.995196         0.829313         1.369252
 H         1.999701         3.026564        -0.217711
 H         3.247949         2.838377        -1.269500
 H         1.510392         0.996466        -2.227660
 H         3.913362        -0.299256        -1.398001
