19
Iteration:   165
 C        -0.042569        -0.397039         0.007427
 C         1.354533         0.024703         0.071580
 C         1.943383         0.799277         1.273234
 C         3.351709         1.109674         0.402484
 O         4.618626         1.384519         1.028743
 C         2.671837         2.127883        -0.599167
 C         1.992887         0.806689        -1.129917
 C         3.157345        -0.064466        -0.701279
 O         2.219342        -1.077517        -0.109734
 H        -0.149769        -1.190984         0.671135
 H        -0.746983         0.407135         0.272763
 H        -0.289891        -0.624011        -0.999848
 H         1.449152         1.712949         1.477125
 H         2.042328         0.220259         2.145207
 H         4.535035         1.712128         2.017564
 H         1.971349         2.847050        -0.162094
 H         3.260773         2.645292        -1.344437
 H         1.479967         0.677078        -2.104547
 H         3.855132        -0.452798        -1.377622
