19
Iteration:     4
 C        -0.107453        -0.336838         0.060808
 C         1.345324         0.050783         0.006044
 C         2.024089         0.795667         1.239988
 C         3.299719         1.123267         0.424299
 O         4.484833         1.463767         1.053983
 C         2.740535         2.080701        -0.694431
 C         2.018865         0.783532        -1.154518
 C         3.170309        -0.118077        -0.640891
 O         2.260672        -1.085463        -0.111337
 H        -0.323740        -0.889290         1.041472
 H        -0.763794         0.589628         0.217335
 H        -0.420857        -0.824962        -0.815578
 H         1.553498         1.745472         1.607742
 H         2.196627         0.185880         2.164298
 H         4.541115         0.796215         1.834712
 H         2.227370         2.940931        -0.252292
 H         3.584215         2.386641        -1.302688
 H         1.535584         0.754416        -2.152004
 H         4.002837        -0.532712        -1.133139
