19
Iteration:  4352
 C        -0.051127        -0.624784         0.259847
 C         1.342554        -0.055599         0.055524
 C         2.013621         0.786525         1.228980
 C         3.289004         1.157187         0.386311
 O         4.603251         1.350357         0.991012
 C         2.600549         2.174422        -0.574304
 C         1.951915         0.906736        -1.149216
 C         3.117695         0.047177        -0.752593
 O         2.366028        -1.009158        -0.213276
 H        -0.332693        -0.541352         1.352713
 H        -0.827064        -0.131089        -0.333483
 H        -0.058379        -1.711144         0.148932
 H         1.489476         1.684374         1.361831
 H         2.231438         0.218807         2.158770
 H         4.347370         1.883419         1.678499
 H         1.980615         3.003029        -0.257322
 H         3.328633         2.405950        -1.394376
 H         1.269640         1.069867        -2.054864
 H         3.858849        -0.291172        -1.374317
