19
Iteration:  2014
 C        -0.020286        -0.563904         0.087843
 C         1.321831         0.066854         0.117399
 C         2.090588         0.736003         1.297335
 C         3.293762         1.142646         0.388046
 O         4.475272         1.460369         0.951404
 C         2.645321         2.200241        -0.597088
 C         1.969659         0.869778        -1.186740
 C         3.139534        -0.003370        -0.692858
 O         2.308325        -1.096009        -0.120865
 H        -0.073214        -1.467884         0.778592
 H        -0.723373         0.155659         0.570381
 H        -0.298867        -0.854995        -0.980172
 H         1.717297         1.496245         1.805655
 H         2.535608        -0.232563         1.878730
 H         4.514783         1.092839         1.906473
 H         1.866772         2.876086        -0.193794
 H         3.197775         2.779367        -1.356122
 H         1.377487         0.871545        -2.134963
 H         4.021397        -0.167497        -1.342586
