19
Iteration:  1726charge 0 multiplicity 1
 C        -0.046584        -0.464259         0.106637
 C         1.359859         0.057414         0.070562
 C         2.121475         0.640114         1.267447
 C         3.283453         1.193410         0.409731
 O         4.513365         1.485503         0.993300
 C         2.632008         2.143925        -0.596750
 C         1.962619         0.867567        -1.125217
 C         3.073962        -0.037987        -0.694338
 O         2.311036        -1.067157        -0.191951
 H        -0.265906        -0.983711         1.027856
 H        -0.654404         0.338453        -0.219251
 H        -0.146248        -1.157551        -0.648303
 H         1.631174         1.323524         1.963837
 H         2.451559        -0.322661         1.946321
 H         4.435778         1.179776         1.834831
 H         1.958308         2.944325        -0.297821
 H         3.390724         2.565137        -1.258278
 H         1.351886         0.565227        -1.958234
 H         3.974013        -0.187937        -1.283000
