19
Iteration:  3527
 C        -0.080786        -0.498165         0.333500
 C         1.411479        -0.061817         0.079677
 C         2.085573         0.675675         1.223529
 C         3.264513         1.166523         0.355336
 O         4.467707         1.520961         1.037233
 C         2.654040         2.167261        -0.628720
 C         1.948895         0.837115        -1.128123
 C         3.110217        -0.005403        -0.795278
 O         2.386841        -1.065992        -0.262279
 H        -0.098061        -1.338579         0.938340
 H        -0.741319         0.379943         0.481700
 H        -0.427900        -0.809405        -0.623937
 H         1.503028         1.468542         1.636298
 H         2.494341        -0.131521         1.990773
 H         4.285639         1.553435         1.992719
 H         1.945883         2.860461        -0.195079
 H         3.342507         2.617991        -1.326225
 H         1.259558         0.663153        -2.028136
 H         3.999623        -0.162812        -1.361570
