19
Iteration:  2011
 C        -0.033839        -0.543279         0.099489
 C         1.340614         0.046515         0.131361
 C         2.081610         0.723257         1.279018
 C         3.292951         1.112391         0.358782
 O         4.492039         1.463769         0.965652
 C         2.619355         2.187240        -0.599311
 C         1.982068         0.875867        -1.152769
 C         3.139895         0.005577        -0.702177
 O         2.309417        -1.076946        -0.133197
 H        -0.061405        -1.528829         0.743345
 H        -0.809037         0.159144         0.397129
 H        -0.313750        -0.951630        -0.914348
 H         1.620978         1.597982         1.881904
 H         2.514129        -0.047719         2.027833
 H         4.504920         1.078689         1.782983
 H         1.916395         2.919236        -0.172336
 H         3.140590         2.846360        -1.337245
 H         1.453384         0.863387        -2.172394
 H         4.097576        -0.259645        -1.340545
