19
Iteration:  4846
 C        -0.032941        -0.664375         0.247116
 C         1.319033         0.045989         0.131298
 C         2.070548         0.755530         1.262419
 C         3.318144         1.151719         0.414968
 O         4.505961         1.473716         1.004460
 C         2.698096         2.201024        -0.661065
 C         1.883781         0.937020        -1.078884
 C         3.052532         0.057607        -0.770455
 O         2.345806        -1.114655        -0.244842
 H        -0.883058        -0.009855         0.644875
 H        -0.294787        -1.090574        -0.764455
 H         0.097091        -1.469427         0.968172
 H         1.677969         1.709403         1.768101
 H         2.261967         0.063259         2.056947
 H         5.084135         0.591769         0.885899
 H         2.199061         3.077082        -0.159899
 H         3.391636         2.561244        -1.418828
 H         1.266059         0.737558        -1.919263
 H         3.817089         0.030272        -1.570104
