19
Iteration:  4602
 C        -0.095266        -0.357354         0.237649
 C         1.420969         0.002500         0.123518
 C         2.174982         0.573220         1.267882
 C         3.279375         1.183262         0.383941
 O         4.525670         1.486924         0.956249
 C         2.474446         2.083857        -0.631392
 C         1.870140         0.807064        -1.167760
 C         3.204350         0.078492        -0.723967
 O         2.375724        -1.097825        -0.221441
 H        -0.613929         0.394206         0.898609
 H        -0.658342        -0.285083        -0.716916
 H        -0.218179        -1.341432         0.543767
 H         1.628637         1.284172         1.912103
 H         2.489349        -0.363220         1.898416
 H         4.340079         1.413868         1.847539
 H         1.777783         2.704133        -0.073997
 H         3.311553         2.575077        -1.213489
 H         1.443391         0.794349        -2.210669
 H         4.093111        -0.099954        -1.338452
