19
Iteration:  3704
 C        -0.030263        -0.534220         0.256077
 C         1.393749        -0.011415         0.040391
 C         2.012456         0.777383         1.236255
 C         3.321627         1.162419         0.376117
 O         4.491295         1.428661         1.088080
 C         2.602537         2.136182        -0.692197
 C         1.909820         0.843105        -1.139276
 C         3.154583        -0.013222        -0.708320
 O         2.363776        -1.093895        -0.208383
 H         0.024174        -1.460760         0.668528
 H        -0.581652        -0.146882         1.082231
 H        -0.600796        -0.569682        -0.641403
 H         1.457868         1.739065         1.365051
 H         2.253137         0.396161         2.337787
 H         4.707841         2.324160         0.923114
 H         2.036783         2.860350        -0.107384
 H         3.206591         2.616881        -1.439007
 H         1.433359         0.731566        -2.087370
 H         3.968284        -0.423487        -1.414746
