19
Iteration:   219
 C        -0.141015        -0.301299         0.111371
 C         1.341864        -0.051390         0.049484
 C         1.979379         0.672861         1.270692
 C         3.259638         1.084182         0.472672
 O         4.565091         1.390485         1.088785
 C         2.658513         2.135346        -0.654264
 C         1.990792         0.887328        -1.137050
 C         3.218866        -0.057325        -0.633798
 O         2.338369        -1.094355        -0.227679
 H        -0.567517        -0.533805         1.062321
 H        -0.614643         0.644789        -0.293345
 H        -0.217370        -1.136728        -0.695678
 H         1.330914         1.460040         1.505596
 H         2.138092         0.065278         2.094833
 H         4.914775         2.365925         0.926194
 H         1.981476         2.982969        -0.423787
 H         3.383944         2.343371        -1.443768
 H         1.363617         0.826141        -2.038166
 H         4.097136        -0.450182        -1.023777
