19
Iteration:  1674
 C        -0.063855        -0.433546         0.301030
 C         1.365192         0.005655         0.013403
 C         1.968449         0.671651         1.275612
 C         3.263545         1.200858         0.431360
 O         4.429518         1.484590         1.070179
 C         2.713885         2.161997        -0.692444
 C         1.951233         0.871353        -1.170085
 C         3.208098         0.030601        -0.696928
 O         2.333040        -1.135616        -0.261220
 H         0.187248        -1.441075         0.727090
 H        -0.662467         0.265265         0.808791
 H        -0.542038        -0.615330        -0.656466
 H         1.453237         1.353434         1.818471
 H         2.238380        -0.085623         2.010592
 H         4.717224         0.661746         1.476746
 H         2.300839         3.095376        -0.412393
 H         3.386932         2.236188        -1.524171
 H         1.611649         0.781512        -2.275515
 H         4.182141        -0.177260        -1.270493
