19
Iteration:  3314charge 0 multiplicity 1
 C        -0.004252        -0.446239         0.182210
 C         1.417955        -0.092877         0.095856
 C         2.099942         0.689432         1.275272
 C         3.300712         1.152641         0.372542
 O         4.466154         1.608533         0.965082
 C         2.546223         2.150661        -0.480731
 C         1.894520         0.875389        -1.077069
 C         3.182198        -0.020847        -0.772609
 O         2.341820        -1.169130        -0.283708
 H        -0.197467        -1.113103         1.077225
 H        -0.663414         0.363866         0.236148
 H        -0.547921        -0.839769        -0.722734
 H         1.540960         1.665408         1.493733
 H         2.271114         0.191034         2.271200
 H         4.821953         0.811500         1.454549
 H         1.913946         2.940211        -0.086087
 H         3.265213         2.452862        -1.237172
 H         1.325150         0.859979        -1.942979
 H         4.056248        -0.305092        -1.407108
