19
Iteration:  4264
 C        -0.090087        -0.371170         0.286339
 C         1.411340        -0.112363         0.048020
 C         2.077676         0.684306         1.299254
 C         3.258663         1.150163         0.393475
 O         4.452400         1.561024         0.944655
 C         2.549855         2.137194        -0.620104
 C         1.974933         0.775763        -1.197556
 C         3.193267        -0.007886        -0.703270
 O         2.391073        -1.114035        -0.210614
 H        -0.459906        -1.309410         0.731024
 H        -0.408774         0.504408         0.826869
 H        -0.355554        -0.280915        -0.802850
 H         1.528881         1.481995         1.723783
 H         2.352382        -0.174743         2.000113
 H         4.660431         1.136829         1.737836
 H         1.945947         2.940470        -0.236046
 H         3.254783         2.638518        -1.330498
 H         1.331052         0.811791        -2.083554
 H         4.107713        -0.220998        -1.201643
