19
Iteration:  4909charge 0 multiplicity 1
 C        -0.043115        -0.327333         0.277718
 C         1.457211        -0.089163         0.075195
 C         2.200056         0.567524         1.236802
 C         3.240451         1.155998         0.359736
 O         4.496719         1.430219         0.951634
 C         2.448771         2.112476        -0.544759
 C         1.890581         0.884411        -1.119747
 C         3.185030         0.093964        -0.718183
 O         2.384865        -1.129208        -0.276236
 H        -0.602843         0.636370         0.248761
 H        -0.476548        -0.985534        -0.504793
 H        -0.296684        -0.666298         1.231263
 H         1.579906         1.209872         1.745503
 H         2.552757        -0.210714         1.886793
 H         4.567753         2.195072         1.654271
 H         1.818359         2.751644         0.006927
 H         2.931182         2.482754        -1.436880
 H         1.239435         0.859343        -1.947150
 H         3.998919        -0.117930        -1.310965
