19
Iteration:  4713charge 0 multiplicity 1
 C        -0.052288        -0.440476         0.212402
 C         1.377665        -0.017920         0.121398
 C         2.053989         0.711091         1.229355
 C         3.323919         1.170102         0.414370
 O         4.618169         1.339477         0.888915
 C         2.514032         2.151029        -0.527887
 C         1.824280         0.874611        -1.064889
 C         3.169634         0.025735        -0.749213
 O         2.409429        -1.081708        -0.234041
 H        -0.809252         0.335830        -0.158110
 H        -0.304655        -1.312267        -0.457356
 H        -0.263668        -0.862072         1.179421
 H         1.389659         1.549219         1.595813
 H         2.257543        -0.133821         2.002887
 H         4.554427         2.074267         1.645091
 H         1.759721         2.914728        -0.240672
 H         3.074366         2.763101        -1.303413
 H         1.200212         0.837702        -2.033338
 H         4.135133        -0.234848        -1.150336
