19
Iteration:  2904charge 0 multiplicity 1
 C        -0.047937        -0.556011         0.206242
 C         1.328397         0.019378         0.098297
 C         2.164100         0.695892         1.278549
 C         3.260017         1.135570         0.385802
 O         4.490021         1.537807         1.040879
 C         2.604301         2.177119        -0.576527
 C         1.961833         0.880842        -1.235178
 C         3.092774         0.013074        -0.771566
 O         2.317356        -1.104466        -0.206423
 H        -0.103553        -1.488005         0.800794
 H        -0.657700         0.139591         0.729739
 H        -0.255036        -0.849146        -0.779659
 H         1.706024         1.520170         1.952227
 H         2.455040        -0.082415         1.973298
 H         4.960217         0.829073         1.509122
 H         1.841106         2.804429        -0.115948
 H         3.315480         2.764762        -1.161003
 H         1.472064         0.967944        -2.216608
 H         3.941208        -0.170873        -1.484507
