19
Iteration:   162
 C        -0.046370        -0.382680         0.045670
 C         1.377715         0.040552         0.047219
 C         1.923573         0.808209         1.258728
 C         3.355703         1.107180         0.443536
 O         4.623135         1.391141         1.039193
 C         2.684795         2.125052        -0.598873
 C         1.965372         0.775606        -1.147937
 C         3.135034        -0.061112        -0.703045
 O         2.232448        -1.080136        -0.122265
 H        -0.139636        -1.312711         0.664773
 H        -0.821285         0.377265         0.267673
 H        -0.389611        -0.676790        -1.084204
 H         1.452066         1.767504         1.473071
 H         2.095931         0.204804         2.148405
 H         4.558833         1.607132         1.956713
 H         2.026235         2.919662        -0.155431
 H         3.286398         2.645763        -1.376024
 H         1.540215         0.630848        -2.100279
 H         3.915179        -0.345464        -1.415881
