19
Iteration:  2424
 C        -0.067856        -0.469402         0.102609
 C         1.409971        -0.071568         0.150550
 C         2.023116         0.675326         1.269094
 C         3.297706         1.184565         0.386350
 O         4.525671         1.506976         0.947383
 C         2.592240         2.148741        -0.582312
 C         1.889835         0.888100        -1.081500
 C         3.177806         0.015287        -0.755905
 O         2.360451        -1.091497        -0.178869
 H        -0.076870        -1.403564         0.709412
 H        -0.733788         0.293056         0.448936
 H        -0.536725        -0.624227        -0.872270
 H         1.397470         1.450703         1.674516
 H         2.378268         0.055856         2.259186
 H         4.774092         0.834710         1.674049
 H         2.016092         2.891197         0.050816
 H         3.200078         2.654603        -1.378922
 H         1.504340         0.696869        -2.066694
 H         3.986539        -0.191948        -1.475401
