19
Iteration:   953charge 0 multiplicity 1
 C        -0.073521        -0.395855         0.201806
 C         1.353211        -0.060322         0.065454
 C         2.012789         0.762073         1.166174
 C         3.270673         1.106058         0.422227
 O         4.490754         1.430507         1.056071
 C         2.706653         2.160369        -0.629943
 C         1.977485         0.891840        -1.160231
 C         3.191284        -0.038429        -0.656997
 O         2.310055        -1.160930        -0.231593
 H        -0.276689        -0.844374         1.237046
 H        -0.656761         0.518099         0.160396
 H        -0.462115        -1.073677        -0.492375
 H         1.399228         1.673287         1.594373
 H         2.140904         0.070325         1.985907
 H         4.364759         2.171098         1.644698
 H         2.073975         3.028934        -0.302130
 H         3.603583         2.276089        -1.316585
 H         1.605877         0.819751        -2.194695
 H         4.091579        -0.317918        -1.223338
