19
Iteration:  4859
 C         0.024528        -0.611036         0.222195
 C         1.338888         0.041247         0.121556
 C         2.096425         0.740336         1.250990
 C         3.255558         1.167137         0.328404
 O         4.515368         1.487893         0.933722
 C         2.712660         2.216421        -0.488205
 C         1.783452         0.848266        -1.073635
 C         3.103186         0.001410        -0.753137
 O         2.340572        -1.060329        -0.257359
 H        -0.730601         0.178926         0.409662
 H        -0.265726        -1.120442        -0.708517
 H        -0.051501        -1.323245         1.136059
 H         1.408165         1.611062         1.688163
 H         2.411514         0.017715         2.042880
 H         4.904956         0.768474         1.366931
 H         2.127157         3.094501        -0.098428
 H         3.443004         2.398137        -1.286489
 H         1.270959         0.856476        -2.059767
 H         3.967416        -0.406205        -1.425478
