19
Iteration:  3472
 C        -0.122638        -0.493211         0.151684
 C         1.389636        -0.062033         0.048744
 C         2.050137         0.728927         1.281569
 C         3.292642         1.159747         0.328316
 O         4.557247         1.533001         0.930863
 C         2.519748         2.111805        -0.473383
 C         1.979622         0.870323        -1.091041
 C         3.154733        -0.053567        -0.762745
 O         2.406781        -1.122700        -0.189627
 H        -0.219315        -1.498175         0.482765
 H        -0.549090         0.001830         1.101984
 H        -0.545654        -0.307480        -0.805503
 H         1.536592         1.611906         1.488305
 H         2.317903         0.219456         2.263566
 H         4.375091         1.904050         1.734610
 H         1.931653         2.893945        -0.014253
 H         3.171447         2.462751        -1.268994
 H         1.357305         1.033985        -2.085923
 H         3.999252        -0.283238        -1.371497
