19
Iteration:  4180charge 0 multiplicity 1
 C         0.005405        -0.487139         0.253688
 C         1.386900        -0.009026         0.062275
 C         2.055104         0.716335         1.277952
 C         3.244768         1.187171         0.408005
 O         4.482771         1.398099         0.955250
 C         2.598169         2.116956        -0.687251
 C         1.896517         0.833973        -1.207175
 C         3.125886         0.065401        -0.638148
 O         2.410848        -0.999823        -0.180397
 H         0.002835        -1.367006         0.965759
 H        -0.762523         0.270621         0.447556
 H        -0.347722        -0.830279        -0.642189
 H         1.384501         1.517085         1.719461
 H         2.302382         0.199246         2.178090
 H         4.784893         0.617902         1.535515
 H         1.987961         2.916859        -0.246633
 H         3.257904         2.482102        -1.498195
 H         1.285400         0.617069        -2.162534
 H         4.014831        -0.120307        -1.140967
