19
Iteration:  2883
 C        -0.049982        -0.478121         0.184575
 C         1.406065         0.005553         0.075924
 C         2.097021         0.669689         1.245125
 C         3.339205         1.146422         0.373389
 O         4.481544         1.565316         0.983244
 C         2.568862         2.123861        -0.506976
 C         1.898098         0.831647        -1.071953
 C         3.182080        -0.060851        -0.773084
 O         2.320369        -1.058903        -0.283874
 H        -0.002720        -1.496934         0.594468
 H        -0.531215         0.065964         0.898625
 H        -0.446284        -0.564074        -0.791914
 H         1.469636         1.575865         1.596360
 H         2.253646         0.140342         2.243004
 H         4.647216         1.144646         1.801882
 H         2.010788         2.882780         0.026217
 H         3.134392         2.626370        -1.276674
 H         1.323253         0.912366        -2.002093
 H         3.975023        -0.490428        -1.422859
