19
Iteration:   889
 C        -0.094491        -0.473431         0.024436
 C         1.345875         0.054587         0.130358
 C         1.934157         0.840440         1.218341
 C         3.314399         1.141059         0.459036
 O         4.578348         1.361463         0.955861
 C         2.676298         2.053624        -0.589550
 C         1.974086         0.838679        -1.090791
 C         3.136092        -0.040576        -0.681761
 O         2.344626        -1.044319        -0.117885
 H         0.096402        -1.476596         0.606770
 H        -0.822492         0.175123         0.447162
 H        -0.375301        -0.475155        -0.971445
 H         1.457950         1.708976         1.379780
 H         2.134567         0.320023         2.086358
 H         4.444195         1.895325         1.681979
 H         1.942929         2.856837        -0.345246
 H         3.443726         2.380572        -1.355722
 H         1.474575         0.779171        -2.073648
 H         3.961740        -0.462478        -1.310735
