19
Iteration:   777
 C        -0.041862        -0.486350         0.046885
 C         1.348209         0.048378         0.073350
 C         2.059519         0.723348         1.287609
 C         3.286171         1.178010         0.473466
 O         4.547191         1.354846         0.948383
 C         2.632159         2.074179        -0.653640
 C         2.004210         0.845176        -1.160928
 C         3.181463         0.042601        -0.609684
 O         2.225388        -1.028216        -0.112484
 H        -0.701849        -0.743570         1.069104
 H        -0.698766         0.417510        -0.274770
 H        -0.274858        -1.203794        -0.777799
 H         1.567496         1.501271         1.767443
 H         2.338996        -0.143296         1.826158
 H         4.605635         1.749550         1.912004
 H         1.992646         2.987359        -0.448716
 H         3.454369         2.484472        -1.306813
 H         1.690207         0.668903        -2.191420
 H         3.985634        -0.297751        -1.241924
