19
Iteration:  2419
 C        -0.088291        -0.494627         0.122647
 C         1.399933        -0.030267         0.141795
 C         2.060136         0.654229         1.297966
 C         3.256556         1.159449         0.404491
 O         4.527389         1.507290         0.942307
 C         2.590485         2.157522        -0.608014
 C         1.886861         0.913583        -1.089357
 C         3.186596         0.042443        -0.757461
 O         2.388442        -1.124440        -0.174627
 H        -0.252381        -1.382249         0.734214
 H        -0.758600         0.414534         0.373409
 H        -0.492358        -0.664269        -0.893320
 H         1.467942         1.456533         1.810531
 H         2.352047        -0.021974         2.003347
 H         4.666282         0.875222         1.689792
 H         2.045957         3.017660        -0.194461
 H         3.279595         2.693942        -1.262790
 H         1.481504         0.714114        -2.103787
 H         4.011863        -0.301078        -1.396277
