19
Iteration:  1065charge 0 multiplicity 1
 C        -0.099065        -0.523719         0.120519
 C         1.333002         0.102117         0.113076
 C         2.074692         0.733315         1.284509
 C         3.271285         1.165385         0.409959
 O         4.484141         1.389414         0.991730
 C         2.705700         2.162063        -0.668491
 C         2.055305         0.878391        -1.244386
 C         3.108271        -0.079233        -0.673692
 O         2.296545        -1.051221        -0.095877
 H        -0.194059        -1.470952         0.668595
 H        -0.783838         0.148090         0.576918
 H        -0.333473        -0.787129        -0.892038
 H         1.634055         1.759226         1.690584
 H         2.238906         0.049854         2.175949
 H         4.363305         1.373700         1.936367
 H         1.922417         2.987953        -0.548080
 H         3.531270         2.610129        -1.324794
 H         1.677580         0.810920        -2.280264
 H         4.021096        -0.399325        -1.244566
