19
Iteration:  4351
 C        -0.043664        -0.624940         0.262014
 C         1.334121        -0.054662         0.061538
 C         2.010238         0.783155         1.224957
 C         3.295633         1.155211         0.390622
 O         4.604550         1.355297         0.989444
 C         2.601021         2.168882        -0.584390
 C         1.949871         0.911681        -1.149245
 C         3.109046         0.043029        -0.749829
 O         2.368249        -1.003040        -0.215191
 H        -0.344422        -0.542344         1.325663
 H        -0.814267        -0.145991        -0.326064
 H        -0.100833        -1.733211         0.120977
 H         1.492323         1.657263         1.379420
 H         2.227352         0.227603         2.159729
 H         4.361372         1.892376         1.704551
 H         1.979750         2.984290        -0.254769
 H         3.345178         2.390664        -1.369518
 H         1.329569         1.087985        -2.015959
 H         3.850645        -0.292534        -1.395670
