19
Iteration:  1083charge 0 multiplicity 1
 C        -0.118611        -0.464966         0.187635
 C         1.327147         0.039991         0.069508
 C         2.031891         0.740380         1.252473
 C         3.275552         1.114261         0.390323
 O         4.488662         1.472163         1.101500
 C         2.773479         2.070368        -0.742778
 C         1.966244         0.834016        -1.218694
 C         3.177024         0.028469        -0.667049
 O         2.284453        -1.037986        -0.181867
 H        -0.022533        -1.484190         0.773485
 H        -0.801930         0.217078         0.755613
 H        -0.491939        -0.782484        -0.785874
 H         1.489578         1.468371         1.910628
 H         2.441307        -0.019358         1.843674
 H         4.296418         1.312606         2.013362
 H         2.488504         3.065812        -0.443929
 H         3.576789         2.286195        -1.447653
 H         1.324267         0.692070        -2.148036
 H         4.093170        -0.293986        -1.255045
