19
Iteration:  2036charge 0 multiplicity 1
 C        -0.052297        -0.477010         0.147326
 C         1.356148        -0.001426         0.081654
 C         2.046141         0.659656         1.298546
 C         3.266273         1.160415         0.438479
 O         4.522332         1.505540         0.988401
 C         2.619042         2.106889        -0.641401
 C         1.928234         0.867641        -1.137115
 C         3.137886         0.004059        -0.721486
 O         2.341781        -1.026828        -0.199240
 H         0.072865        -1.557904         0.516107
 H        -0.742727         0.005085         0.887783
 H        -0.484623        -0.641969        -0.894340
 H         1.477734         1.414740         1.702417
 H         2.572538        -0.134489         2.023352
 H         4.440838         1.315444         1.942985
 H         2.171019         3.099771        -0.429663
 H         3.425541         2.298935        -1.382942
 H         1.513501         0.762060        -2.154594
 H         4.067060        -0.302497        -1.242529
