19
Iteration:  2033charge 0 multiplicity 1
 C        -0.039409        -0.489252         0.147651
 C         1.364603         0.033555         0.046676
 C         2.089796         0.657846         1.283799
 C         3.229831         1.189424         0.433202
 O         4.525799         1.494421         0.980104
 C         2.611391         2.105082        -0.635861
 C         1.920936         0.870104        -1.135042
 C         3.105488        -0.002264        -0.715807
 O         2.349558        -1.040238        -0.174636
 H         0.122899        -1.585123         0.441942
 H        -0.757452         0.034823         0.729465
 H        -0.523521        -0.685120        -0.839559
 H         1.495138         1.390784         1.936994
 H         2.486544        -0.077311         1.995570
 H         4.440528         1.277362         2.008815
 H         2.223606         3.083336        -0.396699
 H         3.497697         2.356810        -1.267418
 H         1.503122         0.732426        -2.183267
 H         4.070617        -0.406985        -1.222960
