19
Iteration:  2880
 C        -0.032585        -0.465885         0.184013
 C         1.373557        -0.006809         0.074534
 C         2.094812         0.661116         1.264878
 C         3.320787         1.136128         0.383994
 O         4.490983         1.567347         0.976233
 C         2.585640         2.141438        -0.530440
 C         1.882207         0.821640        -1.066678
 C         3.186606        -0.051094        -0.748146
 O         2.335088        -1.067169        -0.294292
 H        -0.076506        -1.511670         0.549397
 H        -0.523325         0.149872         1.040924
 H        -0.404744        -0.576519        -0.827297
 H         1.436640         1.567279         1.541263
 H         2.240845         0.117809         2.102329
 H         4.715601         1.190874         1.936015
 H         1.952392         2.842723         0.083047
 H         3.172240         2.564908        -1.398310
 H         1.317563         0.987730        -2.006161
 H         3.980921        -0.417284        -1.496432
