19
Iteration:  4086
 C        -0.081252        -0.450768         0.268930
 C         1.366553        -0.027360         0.048645
 C         2.142504         0.643179         1.276956
 C         3.271879         1.144551         0.376689
 O         4.481973         1.527154         0.986573
 C         2.586826         2.177476        -0.614326
 C         1.916519         0.788016        -1.160262
 C         3.203576         0.054357        -0.738618
 O         2.338345        -1.075940        -0.221639
 H        -0.326867        -0.347346         1.305053
 H        -0.765925         0.012668        -0.463654
 H        -0.157706        -1.560936        -0.036740
 H         1.591102         1.399797         1.848783
 H         2.241208        -0.139827         2.114207
 H         4.438314         1.184482         1.830356
 H         2.110246         2.969555        -0.011267
 H         3.232012         2.539699        -1.430836
 H         1.555367         0.766137        -2.190593
 H         4.037857        -0.238509        -1.516971
