19
Iteration:  1166
 C        -0.118859        -0.392337         0.048016
 C         1.362003        -0.034108         0.147776
 C         2.030678         0.712051         1.297022
 C         3.246760         1.201874         0.499856
 O         4.528953         1.515589         0.936729
 C         2.679416         2.112182        -0.634357
 C         1.975109         0.797337        -1.108561
 C         3.126657        -0.037467        -0.650847
 O         2.341783        -1.077898        -0.204079
 H        -0.631204        -0.666240         0.870427
 H        -0.548498         0.537195        -0.389071
 H        -0.314016        -1.073057        -0.841913
 H         1.543137         1.556325         1.809284
 H         2.340475        -0.159162         2.094459
 H         4.812006         0.738137         1.430297
 H         2.120034         2.930910        -0.121052
 H         3.493809         2.288324        -1.340530
 H         1.586781         0.602795        -2.060535
 H         4.002068        -0.313300        -1.169448
