19
Iteration:  1593charge 0 multiplicity 1
 C        -0.095399        -0.442621         0.073334
 C         1.314684         0.048862         0.111222
 C         2.078003         0.600710         1.333786
 C         3.272726         1.141053         0.465767
 O         4.469550         1.463798         0.935495
 C         2.658579         2.120455        -0.664304
 C         1.973976         0.889102        -1.124696
 C         3.147223         0.009924        -0.687799
 O         2.382940        -1.073186        -0.187274
 H        -0.301139        -0.866856         1.005495
 H        -0.902084         0.373896         0.137074
 H        -0.266402        -1.154024        -0.753833
 H         1.636930         1.535010         1.918341
 H         2.609404        -0.260063         1.970517
 H         4.494226         1.220935         1.820951
 H         1.937147         2.973870        -0.474859
 H         3.483308         2.598581        -1.228639
 H         1.391900         0.829176        -2.007820
 H         4.038624        -0.156072        -1.261023
