19
Iteration:  2469charge 0 multiplicity 1
 C        -0.047714        -0.587123         0.242510
 C         1.342152         0.015300         0.078405
 C         2.065366         0.613992         1.264000
 C         3.235794         1.182796         0.373961
 O         4.448746         1.526839         1.015724
 C         2.721222         2.170862        -0.641109
 C         1.992746         0.863594        -1.150375
 C         3.112596         0.080520        -0.710525
 O         2.319680        -1.012804        -0.208837
 H         0.116160        -1.619556         0.690313
 H        -0.610223         0.064602         0.762815
 H        -0.707713        -0.562476        -0.628953
 H         1.527686         1.352314         1.895222
 H         2.427956        -0.246515         2.027054
 H         4.810464         0.582200         1.282878
 H         2.087430         3.065642        -0.439970
 H         3.510386         2.439837        -1.405167
 H         1.465202         0.760721        -2.115850
 H         3.966601        -0.373221        -1.272239
