19
Iteration:  1118charge 0 multiplicity 1
 C        -0.066149        -0.342275         0.251252
 C         1.405530        -0.016561         0.081381
 C         1.989852         0.807035         1.218826
 C         3.323052         1.097183         0.360956
 O         4.425555         1.577798         1.163072
 C         2.721650         2.105096        -0.580865
 C         2.004871         0.785254        -1.272876
 C         3.208322        -0.120436        -0.785407
 O         2.278976        -1.158268        -0.268197
 H        -0.228327        -1.170994         1.134472
 H        -0.668695         0.502232         0.521229
 H        -0.558145        -0.654704        -0.618166
 H         1.372645         1.804632         1.483837
 H         2.235891         0.252355         2.111907
 H         4.577274         0.897409         1.831962
 H         1.999243         2.742468        -0.094333
 H         3.501658         2.498800        -1.266923
 H         1.255116         0.750569        -2.131248
 H         4.155737        -0.365442        -1.385520
