19
Iteration:  2323
 C        -0.048305        -0.505599         0.219209
 C         1.362408        -0.030961         0.010079
 C         2.125566         0.665829         1.327585
 C         3.246505         1.220873         0.375503
 O         4.448794         1.483662         0.999110
 C         2.669958         2.176433        -0.651324
 C         1.905875         0.912462        -1.144921
 C         3.138124         0.013436        -0.674681
 O         2.349109        -1.079305        -0.196575
 H        -0.181909        -0.965866         1.182163
 H        -0.919372         0.266279        -0.080127
 H        -0.166208        -1.319954        -0.497282
 H         1.409792         1.172777         2.012936
 H         2.671419        -0.365196         1.803978
 H         4.643105         0.718139         1.436815
 H         2.062007         3.102302        -0.424821
 H         3.486062         2.627772        -1.297298
 H         1.359679         0.869920        -2.108779
 H         4.023969        -0.242609        -1.217043
