19
Iteration:  1498
 C        -0.099653        -0.475038         0.130656
 C         1.331207         0.044310         0.092976
 C         2.056368         0.748771         1.275057
 C         3.299387         1.166453         0.400322
 O         4.503666         1.539377         1.040947
 C         2.663042         2.083729        -0.582779
 C         1.997215         0.828298        -1.188383
 C         3.171021        -0.036188        -0.717989
 O         2.277872        -1.089692        -0.209374
 H        -0.085839        -1.270852         0.996859
 H        -0.858867         0.327315         0.329987
 H        -0.199801        -0.932707        -0.826500
 H         1.713479         1.561202         1.789814
 H         2.365839        -0.065082         1.938454
 H         4.735530         0.602322         1.485533
 H         1.932496         2.792840        -0.236173
 H         3.333244         2.687290        -1.192668
 H         1.421212         0.835369        -2.076306
 H         4.071105        -0.295738        -1.244638
