19
Iteration:  2587
 C        -0.043121        -0.471587         0.175188
 C         1.390617        -0.014750         0.116335
 C         2.032768         0.718659         1.224812
 C         3.382938         1.106473         0.383999
 O         4.470961         1.553266         0.988498
 C         2.605626         2.129981        -0.437496
 C         1.895911         0.886941        -1.077681
 C         3.148649         0.003743        -0.798019
 O         2.333167        -1.111206        -0.251331
 H        -0.142637        -1.065780         1.119602
 H        -0.797793         0.341700        -0.126644
 H        -0.177782        -1.134328        -0.699259
 H         1.488240         1.544711         1.473320
 H         2.262301         0.114988         2.154438
 H         5.136415         0.783318         1.274780
 H         1.981163         2.889168         0.130910
 H         2.988276         2.639560        -1.366312
 H         1.509697         0.647611        -2.061124
 H         3.883914        -0.387502        -1.549278
