19
Iteration:   189charge 0 multiplicity 1
 C        -0.152396        -0.343052        -0.076001
 C         1.336902         0.055073         0.072517
 C         2.143845         0.741141         1.316495
 C         3.239585         1.097862         0.426214
 O         4.498858         1.347946         0.971778
 C         2.681084         2.137052        -0.567923
 C         1.954991         0.815903        -1.155427
 C         3.154140        -0.051412        -0.612972
 O         2.325947        -1.087736        -0.077189
 H        -0.486211        -1.000111         0.728353
 H        -0.872216         0.452718        -0.224623
 H        -0.095873        -0.765790        -0.971430
 H         1.699944         1.565472         1.895381
 H         2.538995        -0.062545         1.983768
 H         4.653303         2.165212         1.433233
 H         2.082120         2.953319        -0.185059
 H         3.392056         2.519970        -1.293770
 H         1.430453         0.666583        -2.186444
 H         4.119183        -0.344284        -1.132431
