19
Iteration:  3668charge 0 multiplicity 1
 C        -0.094186        -0.478070         0.276715
 C         1.348053        -0.021398         0.023778
 C         2.125033         0.641317         1.331107
 C         3.270080         1.131461         0.390403
 O         4.435862         1.590832         1.081472
 C         2.690886         2.093200        -0.710068
 C         1.926812         0.887252        -1.159293
 C         3.176215        -0.071729        -0.731329
 O         2.335635        -1.085808        -0.238429
 H         0.186035        -1.452565         0.760978
 H        -0.568451         0.318153         0.878714
 H        -0.764893        -0.632171        -0.511363
 H         1.438915         1.305650         1.743040
 H         2.451855        -0.142808         2.066568
 H         4.588487         2.473746         0.947188
 H         2.024115         2.920264        -0.458612
 H         3.498507         2.414231        -1.375056
 H         1.430815         0.691124        -2.157247
 H         4.012768        -0.407387        -1.248385
