19
Iteration:  2176
 C        -0.030572        -0.486641         0.152990
 C         1.347771        -0.026402         0.101975
 C         2.109473         0.612918         1.288424
 C         3.250444         1.198094         0.404267
 O         4.545176         1.477718         0.992180
 C         2.592459         2.201364        -0.641883
 C         1.965679         0.851833        -1.175613
 C         3.119091         0.076332        -0.720495
 O         2.295183        -1.083967        -0.169751
 H        -0.320603        -0.904384         1.127048
 H        -0.635581         0.259836         0.004097
 H        -0.113852        -1.318405        -0.549627
 H         1.560579         1.335084         2.016562
 H         2.400441        -0.269030         1.713710
 H         4.466529         0.909266         1.906734
 H         2.016177         3.038241        -0.316646
 H         3.295658         2.512848        -1.392196
 H         1.493725         0.642197        -2.137431
 H         4.097155         0.123859        -1.260418
