19
Iteration:  1889
 C        -0.061761        -0.456529         0.146546
 C         1.311264         0.020830         0.105736
 C         2.062565         0.609387         1.271007
 C         3.240499         1.129674         0.430835
 O         4.512026         1.478742         0.965296
 C         2.624621         2.157487        -0.665350
 C         1.904958         0.864265        -1.116114
 C         3.127795         0.029602        -0.703897
 O         2.434893        -1.069043        -0.173325
 H        -0.249527        -1.406997         0.795977
 H        -0.728390         0.492720         0.272412
 H        -0.323090        -0.771106        -0.883587
 H         1.666589         1.445621         1.889430
 H         2.235042        -0.084273         2.018101
 H         4.645661         1.262911         1.935057
 H         2.075855         3.129790        -0.448666
 H         3.490407         2.396409        -1.383073
 H         1.397867         0.569308        -2.003327
 H         4.079058        -0.090749        -1.301234
