19
Iteration:  3288
 C        -0.058592        -0.526446         0.246383
 C         1.315090         0.031876         0.067565
 C         2.074392         0.593685         1.268455
 C         3.268948         1.206086         0.396894
 O         4.474389         1.527628         1.026449
 C         2.598160         2.117123        -0.628957
 C         1.949423         0.831244        -1.160532
 C         3.170690         0.066438        -0.728756
 O         2.408079        -1.026257        -0.214741
 H        -0.056115        -1.332044         0.911606
 H        -0.779192         0.166327         0.766106
 H        -0.641964        -0.562166        -0.626016
 H         1.526286         1.405071         2.040073
 H         2.370540        -0.233033         1.890751
 H         5.013379         0.657012         1.003912
 H         1.810574         2.866624        -0.378813
 H         3.429307         2.408686        -1.310564
 H         1.398565         0.637468        -2.167182
 H         3.952214        -0.111847        -1.460204
