19
Iteration:  2118charge 0 multiplicity 1
 C        -0.081932        -0.511756         0.174203
 C         1.367379        -0.064262         0.075182
 C         2.046296         0.691981         1.249907
 C         3.270816         1.197533         0.432953
 O         4.510091         1.557478         1.018777
 C         2.654815         2.117597        -0.618134
 C         1.932624         0.919349        -1.083789
 C         3.177715        -0.025546        -0.728158
 O         2.337635        -1.112886        -0.236753
 H        -0.295741        -0.989708         1.135403
 H        -0.688839         0.451591        -0.006114
 H        -0.356616        -1.070750        -0.703590
 H         1.400398         1.503996         1.891523
 H         2.249523        -0.123809         2.074520
 H         4.821725         0.748507         1.272836
 H         2.042834         2.937793        -0.235029
 H         3.375245         2.466198        -1.383943
 H         1.326734         0.991810        -2.022991
 H         4.108725        -0.170529        -1.371674
