19
Iteration:   401charge 0 multiplicity 1
 C        -0.101149        -0.340484         0.266041
 C         1.326247         0.094228         0.005194
 C         2.100834         0.729550         1.191663
 C         3.269400         1.195408         0.467111
 O         4.447518         1.436007         1.180643
 C         2.651892         2.090004        -0.641483
 C         2.058731         0.824605        -1.236808
 C         3.190154        -0.072364        -0.736803
 O         2.293302        -1.148186        -0.321645
 H        -0.052962        -0.579925         1.293642
 H        -0.967821         0.252900         0.106246
 H        -0.303496        -1.312433        -0.321137
 H         1.697510         1.676150         1.821647
 H         2.390238        -0.098681         1.889722
 H         4.244457         1.355104         2.078546
 H         1.901482         2.856145        -0.348671
 H         3.438579         2.458409        -1.330308
 H         1.690299         0.658177        -2.205211
 H         4.112691        -0.368408        -1.324084
