19
Iteration:  2817charge 0 multiplicity 1
 C         0.005080        -0.493939         0.221510
 C         1.406131         0.011029         0.027402
 C         2.139373         0.712789         1.211195
 C         3.281920         1.177483         0.391543
 O         4.550480         1.478207         1.038661
 C         2.533932         2.142230        -0.484355
 C         1.883683         0.823398        -1.138377
 C         3.141170        -0.028641        -0.800118
 O         2.307635        -1.070642        -0.274470
 H         0.070825        -1.177007         1.070474
 H        -0.700295         0.247009         0.476263
 H        -0.292263        -1.001662        -0.676293
 H         1.453990         1.648527         1.549435
 H         2.264046         0.139834         2.231070
 H         4.359034         1.239204         2.044542
 H         2.017326         2.931031         0.015492
 H         3.066754         2.708849        -1.218101
 H         1.372323         0.768235        -2.137125
 H         3.926413        -0.402962        -1.547522
