19
Iteration:  2385charge 0 multiplicity 1
 C        -0.044744        -0.450980         0.218684
 C         1.398092        -0.020718         0.060432
 C         2.102849         0.590064         1.296506
 C         3.290195         1.133061         0.396010
 O         4.482935         1.568771         1.018266
 C         2.596178         2.162029        -0.608206
 C         1.926094         0.864013        -1.104100
 C         3.200150         0.048083        -0.769924
 O         2.295641        -1.098439        -0.269092
 H        -0.455111        -0.733238         1.200296
 H        -0.701969         0.430178         0.092671
 H        -0.088639        -1.304651        -0.479813
 H         1.474913         1.354478         1.839654
 H         2.371077        -0.214896         1.829465
 H         4.497435         1.121457         1.818198
 H         1.923651         2.876686        -0.163688
 H         3.405800         2.471923        -1.260033
 H         1.434944         0.668492        -2.105546
 H         4.014826        -0.341702        -1.446740
