19
Iteration:  2363charge 0 multiplicity 1
 C        -0.078958        -0.458765         0.230778
 C         1.389956        -0.048828         0.051960
 C         2.116572         0.737645         1.225483
 C         3.307704         1.159818         0.434879
 O         4.481451         1.610812         1.080388
 C         2.608512         2.087083        -0.503873
 C         1.925929         0.894534        -1.125671
 C         3.101449        -0.077170        -0.836417
 O         2.369357        -1.164845        -0.359291
 H        -0.210984        -0.464437         1.318995
 H        -0.749035         0.355077         0.099698
 H        -0.321262        -1.454555        -0.143820
 H         1.424125         1.623357         1.372761
 H         2.376535         0.297852         2.058737
 H         4.690158         0.928107         1.860405
 H         1.997179         2.701110         0.155908
 H         3.158374         2.646097        -1.249783
 H         1.508883         0.882580        -2.158240
 H         4.019959        -0.427517        -1.398378
