19
Iteration:  3986charge 0 multiplicity 1
 C        -0.086036        -0.445743         0.212268
 C         1.415469         0.000489         0.077583
 C         2.089596         0.735242         1.233764
 C         3.299008         1.134317         0.349570
 O         4.505840         1.637338         0.988753
 C         2.560183         2.076899        -0.535624
 C         1.914687         0.841117        -1.140905
 C         3.194828        -0.071361        -0.748644
 O         2.363066        -1.152240        -0.218722
 H        -0.270900        -1.433540         0.689736
 H        -0.729836         0.108798         1.008544
 H        -0.412722        -0.429055        -0.806988
 H         1.494894         1.700986         1.635486
 H         2.211837         0.075738         2.170377
 H         4.591911         1.034938         1.717119
 H         1.891788         2.870143        -0.127253
 H         3.153250         2.481189        -1.364024
 H         1.412098         0.811557        -2.122085
 H         4.066880        -0.475910        -1.314299
