19
Iteration:  3485
 C        -0.068490        -0.447766         0.201957
 C         1.380984        -0.037584         0.129037
 C         2.071338         0.666053         1.273023
 C         3.290278         1.176185         0.419727
 O         4.497661         1.511930         0.926072
 C         2.541178         2.145298        -0.581107
 C         1.923859         0.791346        -1.161574
 C         3.241477         0.001589        -0.763103
 O         2.384453        -1.086374        -0.211537
 H        -0.229058        -1.508367         0.361464
 H        -0.613122         0.244484         0.962907
 H        -0.687236        -0.266396        -0.714091
 H         1.529184         1.395700         1.755236
 H         2.321249        -0.068247         1.937964
 H         4.432836         1.792355         1.932788
 H         1.883368         2.847930        -0.023434
 H         3.166441         2.772328        -1.211566
 H         1.405256         0.601051        -2.130524
 H         4.075386        -0.408747        -1.336729
