19
Iteration:  4990charge 0 multiplicity 1
 C         0.022964        -0.603691         0.258937
 C         1.410455         0.016911         0.123266
 C         2.106582         0.759427         1.246563
 C         3.234473         1.100561         0.405484
 O         4.486973         1.397062         1.061465
 C         2.543236         2.148713        -0.592668
 C         1.853334         0.933784        -1.093008
 C         3.083987         0.058109        -0.803349
 O         2.396678        -1.011581        -0.260720
 H        -0.647057         0.069301         0.764124
 H        -0.506076        -0.857525        -0.649126
 H         0.047131        -1.642770         0.752778
 H         1.775583         1.710076         1.748194
 H         2.453657         0.024010         1.982586
 H         5.095869         0.957052         0.365817
 H         2.071883         3.160504        -0.383337
 H         3.287109         2.495825        -1.283775
 H         1.140094         0.933432        -1.990513
 H         4.038279        -0.226069        -1.466044
