19
Iteration:  3567charge 0 multiplicity 1
 C         0.017946        -0.626871         0.233034
 C         1.314735         0.028257         0.150970
 C         2.053153         0.679835         1.238596
 C         3.271384         1.210589         0.403280
 O         4.523485         1.497887         0.987587
 C         2.639092         2.141946        -0.634626
 C         1.972529         0.888250        -1.151866
 C         3.087730         0.046260        -0.719384
 O         2.317535        -1.042243        -0.258202
 H        -0.198961        -0.723748         1.348993
 H        -0.823748         0.033300        -0.008538
 H         0.008110        -1.519919        -0.415319
 H         1.416555         1.531798         1.656293
 H         2.387785         0.002606         2.042278
 H         4.672307         0.744701         1.619926
 H         1.985881         2.935859        -0.222317
 H         3.417042         2.501552        -1.361839
 H         1.386819         0.777569        -2.110975
 H         3.971436        -0.230821        -1.274560
