19
Iteration:  4116charge 0 multiplicity 1
 C        -0.089102        -0.432072         0.204324
 C         1.383702        -0.017768         0.086295
 C         2.156540         0.584265         1.406429
 C         3.268080         1.180709         0.450352
 O         4.507752         1.638585         0.968479
 C         2.662458         2.146744        -0.652852
 C         1.902967         0.800832        -1.128788
 C         3.132768        -0.074361        -0.778972
 O         2.308398        -1.120314        -0.315497
 H        -0.356150        -0.417191         1.362906
 H        -0.739556         0.245826        -0.482366
 H        -0.123128        -1.513937        -0.049187
 H         1.437493         1.358309         1.890900
 H         2.452215        -0.248395         1.948888
 H         4.358285         1.814042         1.999344
 H         2.212294         2.995851        -0.074035
 H         3.353422         2.476074        -1.448181
 H         1.309072         0.881797        -2.093700
 H         3.989030        -0.389676        -1.363650
