19
Iteration:  1522charge 0 multiplicity 1
 C        -0.097254        -0.439018         0.211067
 C         1.364298        -0.044186         0.011873
 C         2.087118         0.625289         1.230999
 C         3.294275         1.121174         0.457139
 O         4.419077         1.523454         1.097616
 C         2.730558         2.131556        -0.718793
 C         1.949118         0.885976        -1.119206
 C         3.096859         0.013157        -0.707517
 O         2.331649        -1.031605        -0.225379
 H        -0.147789        -0.736495         1.340788
 H        -0.762916         0.378460         0.073158
 H        -0.186969        -1.280664        -0.418156
 H         1.513041         1.380086         1.903155
 H         2.442079        -0.180553         1.809202
 H         4.826662         0.774062         1.474944
 H         2.187007         3.012165        -0.430888
 H         3.512833         2.423881        -1.426963
 H         1.501896         0.759138        -2.117630
 H         3.955549        -0.166290        -1.360883
