19
Iteration:  4996
 C         0.031557        -0.614036         0.259757
 C         1.417051         0.007167         0.095135
 C         2.086106         0.754605         1.270632
 C         3.306484         1.109209         0.374722
 O         4.462326         1.361160         1.042902
 C         2.527418         2.205564        -0.569093
 C         1.821826         0.918467        -1.121971
 C         3.091388         0.091246        -0.771593
 O         2.407591        -1.012363        -0.250486
 H        -0.597797         0.115515         0.842293
 H        -0.524967        -0.810750        -0.694315
 H         0.062836        -1.511465         0.811254
 H         1.598297         1.645892         1.626832
 H         2.435044         0.096189         2.074934
 H         5.191346         0.866052         0.544980
 H         2.162930         3.170520        -0.265610
 H         3.239602         2.360213        -1.458305
 H         1.230331         0.716363        -1.982087
 H         3.857509        -0.138397        -1.436093
