19
Iteration:   414
 C        -0.046161        -0.368856         0.293095
 C         1.355236         0.048792        -0.046960
 C         2.023014         0.627470         1.187532
 C         3.264229         1.170205         0.388455
 O         4.458706         1.378540         1.147330
 C         2.705344         2.230597        -0.706649
 C         2.035992         0.783610        -1.210231
 C         3.176468        -0.014484        -0.685526
 O         2.287157        -1.075376        -0.234036
 H        -0.129588        -0.519423         1.323546
 H        -0.698268         0.470780         0.008673
 H        -0.266047        -1.403163        -0.139679
 H         1.157849         1.271720         1.785313
 H         2.285177        -0.240166         1.827113
 H         4.250888         1.396654         2.170602
 H         2.097669         3.101305        -0.393213
 H         3.497544         2.695541        -1.323368
 H         1.626022         0.690721        -2.123099
 H         4.035029        -0.290384        -1.202947
