19
Iteration:  3350
 C        -0.085316        -0.505271         0.156564
 C         1.335044         0.050380         0.064021
 C         2.222100         0.546180         1.335807
 C         3.263901         1.129914         0.392257
 O         4.536625         1.557618         0.973206
 C         2.516261         2.150576        -0.595653
 C         1.865942         0.848979        -1.170971
 C         3.169988         0.052448        -0.699872
 O         2.362913        -1.087341        -0.230960
 H        -0.334760        -0.649938         1.277386
 H        -0.727025         0.423916        -0.105961
 H        -0.107191        -1.471314        -0.402174
 H         1.810105         1.252847         1.885087
 H         2.539098        -0.359234         1.960573
 H         4.330277         1.405031         1.947994
 H         1.945879         3.057201        -0.383648
 H         3.390087         2.455628        -1.206133
 H         1.217786         1.056350        -2.117536
 H         4.048112        -0.217141        -1.334761
