19
Iteration:  3464
 C        -0.058449        -0.497463         0.149016
 C         1.347679        -0.073951         0.063514
 C         2.098140         0.748265         1.244504
 C         3.312632         1.090700         0.432620
 O         4.579909         1.528697         0.920093
 C         2.584080         2.135826        -0.528149
 C         1.892171         0.875375        -1.072725
 C         3.109604        -0.010775        -0.722393
 O         2.403033        -1.118913        -0.197333
 H        -0.151222        -1.594562         0.325773
 H        -0.703554         0.006249         0.976872
 H        -0.638504        -0.498972        -0.828095
 H         1.473627         1.584656         1.466880
 H         2.161052         0.235584         2.092529
 H         4.295444         1.974657         1.679194
 H         1.832305         2.873570        -0.157573
 H         3.172414         2.669463        -1.286164
 H         1.416823         0.891944        -2.039057
 H         3.954665        -0.166690        -1.403967
