19
Iteration:  4522
 C        -0.040924        -0.610840         0.304566
 C         1.326930        -0.038226         0.120031
 C         2.110505         0.666781         1.247166
 C         3.239320         1.172530         0.363262
 O         4.522352         1.504904         1.033310
 C         2.696878         2.163214        -0.596850
 C         1.942996         0.942251        -1.191140
 C         3.088177         0.028921        -0.746136
 O         2.256067        -1.026565        -0.286315
 H        -0.813385        -0.123678        -0.140787
 H        -0.048772        -1.527232        -0.221990
 H        -0.373753        -0.785299         1.381839
 H         1.583032         1.497995         1.811440
 H         2.526917        -0.098633         1.953388
 H         5.082194         0.821900         1.276394
 H         2.303204         2.985280        -0.047822
 H         3.259162         2.620932        -1.336258
 H         1.574806         0.970747        -2.141111
 H         4.036364        -0.149418        -1.313036
