19
Iteration:   986charge 0 multiplicity 1
 C        -0.083117        -0.341874         0.203202
 C         1.387408         0.071555         0.083683
 C         2.057369         0.698749         1.213448
 C         3.335856         1.069877         0.412239
 O         4.509156         1.493388         1.150430
 C         2.572069         2.094500        -0.703426
 C         2.002111         0.822703        -1.181540
 C         3.188907        -0.103568        -0.732838
 O         2.273470        -1.117504        -0.243373
 H        -0.252202        -0.627844         1.306472
 H        -0.755239         0.412928        -0.132212
 H        -0.233871        -1.163246        -0.398475
 H         1.716062         1.660670         1.891318
 H         2.198293        -0.181703         1.835852
 H         4.149139         2.005758         1.841912
 H         1.938932         3.000241        -0.399285
 H         3.498734         2.572673        -1.202815
 H         1.589067         0.679133        -2.211550
 H         4.061538        -0.368506        -1.393579
