19
Iteration:  4360
 C        -0.092157        -0.593731         0.279943
 C         1.403155        -0.011824         0.037102
 C         2.047840         0.816233         1.239743
 C         3.254057         1.175897         0.355473
 O         4.545268         1.301427         0.989736
 C         2.612149         2.216237        -0.542753
 C         1.874381         0.879532        -1.172133
 C         3.205215         0.069620        -0.769901
 O         2.354440        -1.088057        -0.205242
 H        -0.257750        -0.403186         1.303508
 H        -0.843400        -0.180110        -0.359232
 H         0.205250        -1.695125         0.127559
 H         1.477311         1.697701         1.453421
 H         2.199412         0.169135         2.117254
 H         4.424866         1.912408         1.675261
 H         2.065166         3.081004        -0.167962
 H         3.128463         2.666267        -1.369227
 H         1.344907         0.681642        -1.994782
 H         4.166210        -0.220101        -1.284022
