19
Iteration:   634charge 0 multiplicity 1
 C        -0.056649        -0.396745         0.012214
 C         1.344967         0.085746         0.114706
 C         2.038683         0.686681         1.348889
 C         3.292847         1.128081         0.425111
 O         4.514805         1.324980         0.972153
 C         2.565173         2.165043        -0.713827
 C         1.971111         0.898286        -1.149496
 C         3.180724        -0.029661        -0.657739
 O         2.340335        -1.057354        -0.072124
 H        -0.275643        -0.896357         1.030317
 H        -0.799928         0.406992        -0.346077
 H        -0.133027        -1.027109        -0.869017
 H         1.481679         1.446961         1.872649
 H         2.379898        -0.230144         1.843639
 H         4.295982         1.578177         1.933385
 H         2.168755         3.174580        -0.396010
 H         3.307339         2.302846        -1.548537
 H         1.632336         0.622422        -2.196514
 H         4.176613        -0.356803        -1.088619
