19
Iteration:  4535charge 0 multiplicity 1
 C        -0.144860        -0.613333         0.268559
 C         1.314669         0.017966         0.104481
 C         2.145672         0.633747         1.299222
 C         3.321123         1.161015         0.420204
 O         4.467471         1.563467         0.965242
 C         2.713015         2.217628        -0.579978
 C         1.967676         0.967323        -1.165927
 C         3.129632         0.076131        -0.764739
 O         2.271602        -1.135281        -0.263355
 H        -0.971963         0.046265        -0.013169
 H        -0.031121        -1.527957        -0.302495
 H        -0.261519        -0.953902         1.310071
 H         1.590454         1.451747         1.830585
 H         2.511105        -0.170693         2.089186
 H         4.902277         0.591714         1.110192
 H         2.031230         2.999767        -0.333197
 H         3.633575         2.385085        -1.167151
 H         1.489835         0.839032        -2.069873
 H         3.870886        -0.271127        -1.480364
