19
Iteration:  1188charge 0 multiplicity 1
 C        -0.086283        -0.426165        -0.013879
 C         1.351788         0.072566         0.086545
 C         2.046886         0.794040         1.291603
 C         3.359487         1.052947         0.420963
 O         4.533883         1.528763         0.962295
 C         2.632536         2.105066        -0.543791
 C         1.894472         0.855966        -1.085821
 C         3.186226        -0.031101        -0.758499
 O         2.288836        -1.178457        -0.107396
 H        -0.310563        -0.820162         0.885867
 H        -0.798325         0.363633        -0.356512
 H        -0.099983        -1.212149        -0.851972
 H         1.674407         1.816689         1.437389
 H         2.060731         0.235718         2.392376
 H         4.811745         0.802087         1.639470
 H         2.009371         2.821003         0.058912
 H         3.397519         2.426590        -1.251959
 H         1.339981         0.943959        -1.970420
 H         4.088707        -0.308435        -1.237268
