19
Iteration:  3247
 C         0.003037        -0.568486         0.250834
 C         1.394622        -0.000994         0.135746
 C         1.991853         0.796233         1.262958
 C         3.314980         1.138785         0.402678
 O         4.517056         1.525097         1.016643
 C         2.596786         2.118160        -0.556585
 C         1.902824         0.834408        -1.086812
 C         3.128103         0.023847        -0.865310
 O         2.361950        -1.073290        -0.261683
 H         0.180410        -1.654161         0.597550
 H        -0.695439         0.050991         0.791239
 H        -0.571301        -0.722105        -0.776100
 H         1.441408         1.839730         1.305385
 H         2.082634         0.276637         2.172305
 H         4.700814         0.646994         1.461621
 H         2.079727         2.974301        -0.053015
 H         3.322740         2.458461        -1.313618
 H         1.446136         0.798187        -2.031809
 H         3.923439        -0.241694        -1.565678
