19
Iteration:  1750charge 0 multiplicity 1
 C        -0.169299        -0.434130         0.101748
 C         1.378266        -0.041361         0.093486
 C         2.005336         0.669981         1.332428
 C         3.251883         1.098442         0.468435
 O         4.525704         1.496067         0.902229
 C         2.582242         2.179761        -0.610926
 C         1.973279         0.847525        -1.104776
 C         3.202774         0.010784        -0.647459
 O         2.406278        -1.056931        -0.263842
 H        -0.417724        -0.685603         1.124868
 H        -0.587985         0.444640        -0.228341
 H        -0.527994        -1.210670        -0.502055
 H         1.578915         1.401002         1.940913
 H         2.497270        -0.132025         2.133550
 H         4.697917         1.039463         1.809145
 H         2.135768         3.079150        -0.266479
 H         3.431713         2.466648        -1.206083
 H         1.424857         0.589158        -2.123800
 H         4.120583        -0.232803        -1.309056
