19
Iteration:  1150charge 0 multiplicity 1
 C        -0.094790        -0.301575         0.097364
 C         1.346461         0.006704         0.014059
 C         2.046675         0.594180         1.291455
 C         3.254462         1.193362         0.405526
 O         4.522649         1.534320         1.038561
 C         2.647356         2.147701        -0.659489
 C         1.993490         0.836583        -1.190077
 C         3.190421        -0.020847        -0.642933
 O         2.304241        -1.167478        -0.113364
 H        -0.299057        -0.789310         1.231833
 H        -0.844871         0.501122         0.021064
 H        -0.384401        -1.050574        -0.604881
 H         1.346509         1.248758         1.912266
 H         2.387884        -0.192620         1.842966
 H         4.918258         0.693353         1.510447
 H         2.022316         3.022256        -0.547023
 H         3.434020         2.504341        -1.365387
 H         1.384372         0.754683        -2.166554
 H         4.154718        -0.276286        -1.236920
