19
Iteration:  4560
 C        -0.010161        -0.441441         0.218884
 C         1.381501        -0.041427         0.083077
 C         2.052841         0.641003         1.283440
 C         3.338716         1.123149         0.396266
 O         4.543942         1.566887         0.943207
 C         2.594253         2.068107        -0.521090
 C         1.855600         0.867542        -1.121892
 C         3.119428         0.076617        -0.750767
 O         2.329076        -1.080678        -0.250453
 H        -0.712920         0.524571         0.243894
 H        -0.127875        -1.091909        -0.718248
 H        -0.197359        -1.039675         1.088801
 H         1.487659         1.453122         1.744581
 H         2.467319        -0.042498         2.090080
 H         4.757595         0.790878         1.565266
 H         1.983087         2.832772         0.048536
 H         3.142479         2.410405        -1.482215
 H         1.250872         0.838775        -2.149579
 H         3.955114        -0.218404        -1.384992
