19
Iteration:  4108
 C        -0.086707        -0.444238         0.226947
 C         1.352795        -0.009864         0.122945
 C         2.173518         0.575887         1.289186
 C         3.247360         1.212738         0.445445
 O         4.496624         1.615534         0.956838
 C         2.676010         2.099211        -0.652490
 C         1.899016         0.908222        -1.127181
 C         3.114473        -0.070358        -0.748978
 O         2.338012        -1.114569        -0.298133
 H        -0.371857        -0.308951         1.268762
 H        -0.791940         0.086844        -0.443686
 H        -0.298665        -1.556921        -0.114211
 H         1.605434         1.088406         2.063106
 H         2.445943        -0.232714         2.040497
 H         4.391959         1.693118         2.013654
 H         1.986055         2.917667        -0.308316
 H         3.488552         2.473595        -1.290825
 H         1.442833         0.722552        -2.071271
 H         4.189186        -0.398197        -1.189280
