19
Iteration:  2466
 C        -0.057535        -0.572480         0.227641
 C         1.334560         0.007814         0.073958
 C         2.061811         0.632504         1.312202
 C         3.245278         1.172152         0.369979
 O         4.459090         1.520234         1.016405
 C         2.714270         2.156796        -0.638748
 C         1.996759         0.854198        -1.170734
 C         3.105513         0.068666        -0.714030
 O         2.334477        -1.022674        -0.211249
 H         0.156256        -1.542927         0.604300
 H        -0.713981         0.044174         0.908581
 H        -0.661785        -0.644809        -0.674483
 H         1.482626         1.330184         1.823395
 H         2.436834        -0.144201         2.050975
 H         4.812419         0.715656         1.231279
 H         2.159604         3.079701        -0.411591
 H         3.394950         2.596443        -1.397439
 H         1.460210         0.849556        -2.086463
 H         3.923972        -0.316942        -1.265537
