19
Iteration:  2298charge 0 multiplicity 1
 C        -0.055941        -0.517257         0.117811
 C         1.342492         0.000755         0.114306
 C         2.057868         0.743226         1.300620
 C         3.342453         1.088885         0.372789
 O         4.554682         1.502852         0.961504
 C         2.571881         2.099009        -0.559102
 C         1.903913         0.872451        -1.083608
 C         3.111772         0.014796        -0.721346
 O         2.377971        -1.032840        -0.209960
 H        -0.216273        -1.296263         0.862274
 H        -0.814156         0.263193         0.252342
 H        -0.178328        -0.992244        -0.871059
 H         1.358894         1.649356         1.396473
 H         2.182046         0.190451         2.252854
 H         4.802049         0.872889         1.618706
 H         1.884601         2.874458        -0.165322
 H         3.251483         2.629908        -1.223524
 H         1.476858         0.684237        -2.086465
 H         4.000203        -0.259951        -1.369868
