19
Iteration:  4597charge 0 multiplicity 1
 C        -0.094413        -0.333263         0.228061
 C         1.388599        -0.015076         0.126575
 C         2.180961         0.601670         1.324888
 C         3.277209         1.207298         0.329020
 O         4.513321         1.472933         0.952480
 C         2.485473         2.077756        -0.604032
 C         1.876907         0.841474        -1.172077
 C         3.206837         0.041977        -0.729571
 O         2.420303        -1.106670        -0.236828
 H        -0.619476         0.398596         0.810772
 H        -0.615367        -0.286453        -0.723600
 H        -0.283850        -1.426500         0.619147
 H         1.502802         1.215552         1.949339
 H         2.500962        -0.236127         1.842725
 H         4.405247         1.330126         1.991511
 H         1.730332         2.709787        -0.084675
 H         3.034875         2.697245        -1.299404
 H         1.418069         0.783973        -2.139311
 H         4.096693        -0.352893        -1.270339
