19
Iteration:  4550
 C        -0.050834        -0.540175         0.226307
 C         1.347580         0.018140         0.093300
 C         2.078918         0.643223         1.296858
 C         3.263624         1.129274         0.425284
 O         4.538248         1.565550         0.947868
 C         2.630858         2.135967        -0.578233
 C         1.900541         0.880950        -1.069535
 C         3.108421        -0.041489        -0.757332
 O         2.344895        -1.033767        -0.289866
 H        -0.822215         0.346230         0.031043
 H        -0.407308        -1.311929        -0.535957
 H        -0.187687        -0.980608         1.214895
 H         1.651402         1.466347         1.851913
 H         2.344912        -0.207104         1.966100
 H         5.028467         0.874206         1.418791
 H         2.191909         3.096294        -0.129512
 H         3.370603         2.530469        -1.385839
 H         1.282630         0.938355        -2.092847
 H         4.024916        -0.211402        -1.321502
