19
Iteration:  2137charge 0 multiplicity 1
 C        -0.020913        -0.500366         0.087590
 C         1.365164        -0.018519         0.118673
 C         1.993480         0.741867         1.238010
 C         3.331606         1.091673         0.407601
 O         4.552789         1.531061         0.961886
 C         2.590446         2.139855        -0.474157
 C         1.905781         0.817110        -1.088458
 C         3.077083         0.052782        -0.766732
 O         2.383655        -1.113928        -0.213630
 H        -0.351270        -0.733640         1.122578
 H        -0.867373         0.382391        -0.255066
 H        -0.097862        -1.293881        -0.699077
 H         1.547178         1.768611         1.396876
 H         2.187218         0.191731         2.318944
 H         4.924303         0.953805         1.576237
 H         2.183582         3.010069         0.131170
 H         3.290869         2.494619        -1.268593
 H         1.364613         0.717586        -2.019903
 H         3.884752        -0.304427        -1.358861
