19
Iteration:  2674
 C        -0.037872        -0.500764         0.201322
 C         1.385255         0.003706         0.065419
 C         2.092417         0.686574         1.174609
 C         3.360228         1.134889         0.366973
 O         4.557393         1.536049         1.055109
 C         2.569444         2.153187        -0.572713
 C         1.905442         0.889049        -1.106193
 C         3.166854        -0.026205        -0.741049
 O         2.273759        -1.120316        -0.269224
 H        -0.042247        -1.499927         0.688442
 H        -0.668805         0.062203         0.993992
 H        -0.598874        -0.608214        -0.751288
 H         1.590005         1.522660         1.607675
 H         2.319406        -0.012608         2.078966
 H         4.510996         1.468071         2.087113
 H         1.854285         2.891611        -0.169181
 H         3.176313         2.839520        -1.186157
 H         1.214077         0.694081        -1.947190
 H         4.009479        -0.339371        -1.456701
