19
Iteration:    41charge 0 multiplicity 1
 C        -0.112299        -0.262221        -0.038823
 C         1.273753         0.118489         0.139887
 C         1.999258         0.683052         1.278266
 C         3.268096         1.116587         0.436431
 O         4.599029         1.339686         0.982829
 C         2.653171         2.014399        -0.643496
 C         2.023161         0.751607        -1.133391
 C         3.194588        -0.027956        -0.584899
 O         2.293523        -1.021261        -0.082847
 H        -0.521484        -0.997498         0.645956
 H        -0.611092         0.626715        -0.369963
 H        -0.158665        -1.028568        -0.947007
 H         1.569531         1.634910         1.585583
 H         2.148315        -0.096041         2.032917
 H         4.577124         2.340379         1.307096
 H         1.991892         2.837373        -0.233521
 H         3.456397         2.480191        -1.289224
 H         1.570356         0.462069        -2.079295
 H         4.060179        -0.334668        -1.299739
