19
Iteration:  4445charge 0 multiplicity 1
 C        -0.008541        -0.462795         0.197800
 C         1.368153         0.029768         0.119256
 C         2.102902         0.634644         1.299291
 C         3.293674         1.161409         0.397896
 O         4.578578         1.536663         0.935805
 C         2.590649         2.109851        -0.513256
 C         1.900956         0.860597        -1.174310
 C         3.066550        -0.031786        -0.713318
 O         2.333110        -1.077653        -0.300799
 H        -0.664807         0.347599         0.252500
 H        -0.253549        -0.960208        -0.720576
 H        -0.356911        -1.109715         1.058818
 H         1.673086         1.443717         2.012656
 H         2.419415        -0.278682         1.852253
 H         4.479659         1.722288         1.962902
 H         1.814596         2.733892        -0.033616
 H         3.280184         2.574642        -1.184130
 H         1.342606         0.516630        -2.020051
 H         3.870397        -0.197372        -1.521123
