19
Iteration:  2584
 C        -0.034033        -0.481165         0.169967
 C         1.386599        -0.026947         0.089470
 C         2.046315         0.719105         1.217019
 C         3.346152         1.099934         0.408182
 O         4.482156         1.553242         0.970938
 C         2.604226         2.138510        -0.444701
 C         1.900484         0.881499        -1.053331
 C         3.160476         0.004296        -0.785013
 O         2.334902        -1.120727        -0.253934
 H        -0.250320        -0.959122         1.109302
 H        -0.759557         0.423057        -0.132378
 H        -0.143597        -1.163337        -0.670910
 H         1.381720         1.634101         1.639458
 H         2.285075         0.080664         2.040174
 H         5.125138         0.869853         1.267647
 H         2.081718         2.945844         0.038695
 H         3.029326         2.760534        -1.274700
 H         1.451250         0.622366        -1.986058
 H         3.763538        -0.400308        -1.532971
