19
Iteration:  2888
 C        -0.040452        -0.514544         0.181786
 C         1.425987         0.003195         0.091048
 C         2.103227         0.698178         1.241425
 C         3.345660         1.148734         0.366949
 O         4.479015         1.575672         0.985447
 C         2.548401         2.093821        -0.483278
 C         1.937442         0.876527        -1.100318
 C         3.160153        -0.055353        -0.813510
 O         2.301826        -1.068343        -0.259169
 H         0.098575        -1.499868         0.656252
 H        -0.780138         0.167668         0.838608
 H        -0.614647        -0.520404        -0.817676
 H         1.611821         1.546512         1.610735
 H         2.294349         0.124148         2.195323
 H         4.564441         0.912395         1.800026
 H         2.003682         2.954421        -0.013349
 H         3.182602         2.713034        -1.175755
 H         1.337733         0.740554        -2.012796
 H         4.004252        -0.503376        -1.330327
