19
Iteration:  4621
 C        -0.041825        -0.452117         0.268260
 C         1.357082        -0.025786         0.048639
 C         2.104717         0.635252         1.316190
 C         3.298537         1.121232         0.409516
 O         4.511112         1.534465         0.948734
 C         2.615255         2.166244        -0.563874
 C         1.909109         0.882412        -1.107007
 C         3.144358        -0.019161        -0.762503
 O         2.331460        -1.093380        -0.298876
 H        -0.467330         0.211586         0.950847
 H        -0.755535        -0.407780        -0.540138
 H        -0.012946        -1.556033         0.575767
 H         1.486902         1.424750         1.786964
 H         2.347952        -0.161692         2.050988
 H         4.507068         1.833394         1.861298
 H         2.007229         3.045601        -0.356538
 H         3.276138         2.371705        -1.392498
 H         1.516745         0.673098        -2.042096
 H         3.926967        -0.433441        -1.421414
