19
Iteration:   361charge 0 multiplicity 1
 C        -0.125789        -0.373550         0.045092
 C         1.368608         0.039184         0.013477
 C         2.064555         0.718717         1.301066
 C         3.297471         1.152872         0.460738
 O         4.467105         1.552874         1.027700
 C         2.741278         2.106376        -0.611178
 C         1.949969         0.870019        -1.095698
 C         3.106405        -0.061565        -0.701215
 O         2.352172        -1.194976        -0.152094
 H        -0.465812        -1.168419         0.737064
 H        -0.711121         0.558557         0.283415
 H        -0.318491        -0.741053        -0.999787
 H         1.359633         1.426391         1.660001
 H         2.260582        -0.062079         2.006314
 H         4.791135         0.749073         1.609854
 H         2.246597         3.025078        -0.283476
 H         3.538207         2.193796        -1.354408
 H         1.472446         0.875756        -2.044517
 H         3.847915        -0.251059        -1.377889
