19
Iteration:  1701charge 0 multiplicity 1
 C        -0.106918        -0.489898         0.211857
 C         1.388305        -0.036694         0.060914
 C         2.105234         0.758521         1.235751
 C         3.381568         1.092087         0.368512
 O         4.474472         1.538472         1.085749
 C         2.643216         2.050967        -0.534257
 C         1.931556         0.915663        -1.173597
 C         3.154595        -0.024311        -0.814925
 O         2.302492        -1.099352        -0.215440
 H        -0.110124        -1.295139         0.932594
 H        -0.774227         0.452407         0.191022
 H        -0.436602        -0.922778        -0.812381
 H         1.609922         1.825260         1.420592
 H         2.118629         0.346516         2.255567
 H         4.460807         0.993184         1.881052
 H         1.999885         2.862849        -0.030785
 H         3.258087         2.541648        -1.362619
 H         1.409084         0.962846        -2.079858
 H         4.024531        -0.236985        -1.383084
