19
Iteration:  2032
 C        -0.035066        -0.497498         0.145794
 C         1.365930         0.043730         0.038028
 C         2.103387         0.658116         1.280481
 C         3.219911         1.198013         0.431062
 O         4.525392         1.490345         0.980878
 C         2.612165         2.105617        -0.634343
 C         1.918774         0.870214        -1.137495
 C         3.099758        -0.004284        -0.714304
 O         2.350992        -1.045731        -0.167682
 H         0.128966        -1.568105         0.425181
 H        -0.766951         0.052635         0.694037
 H        -0.527382        -0.686572        -0.814901
 H         1.504946         1.385447         1.998727
 H         2.447123        -0.059759         1.977346
 H         4.448303         1.277290         1.977931
 H         2.223019         3.081207        -0.378851
 H         3.511671         2.371239        -1.235410
 H         1.499979         0.727472        -2.169709
 H         4.046723        -0.420125        -1.210715
