19
Iteration:   652charge 0 multiplicity 1
 C        -0.092035        -0.403338         0.077461
 C         1.352043        -0.005744         0.117177
 C         2.075331         0.717112         1.278867
 C         3.280921         1.210623         0.454829
 O         4.513272         1.404300         1.047699
 C         2.730209         2.067467        -0.657488
 C         1.953428         0.800550        -1.168518
 C         3.124429        -0.010386        -0.689060
 O         2.313668        -1.078284        -0.197268
 H        -0.449023        -0.987805         0.858665
 H        -0.742589         0.470807         0.025286
 H        -0.499685        -0.865588        -0.966110
 H         1.599413         1.634737         1.663605
 H         2.448413         0.084949         2.104267
 H         4.322909         1.929346         1.923822
 H         2.084254         2.917556        -0.403597
 H         3.563107         2.401613        -1.272791
 H         1.335016         0.642611        -2.014581
 H         3.977518        -0.213266        -1.294175
