19
Iteration:  2453charge 0 multiplicity 1
 C        -0.063478        -0.537994         0.178079
 C         1.346352         0.023237         0.105828
 C         2.050301         0.761369         1.292316
 C         3.289583         1.147897         0.451227
 O         4.501775         1.519729         1.004940
 C         2.592421         2.144628        -0.615638
 C         1.889661         0.937801        -1.179954
 C         3.184113        -0.049782        -0.751175
 O         2.366507        -1.110120        -0.232920
 H         0.009265        -1.525402         0.568322
 H        -0.790531        -0.065243         1.022409
 H        -0.494190        -0.646725        -0.836613
 H         1.560542         1.664362         1.711361
 H         2.264342         0.080279         2.044790
 H         5.109285         0.724927         1.352106
 H         1.981282         2.798329        -0.009238
 H         3.426835         2.409370        -1.269567
 H         1.456729         0.792081        -2.171826
 H         4.072638        -0.150128        -1.346026
