19
Iteration:  4017charge 0 multiplicity 1
 C        -0.090127        -0.605363         0.215437
 C         1.390675         0.038835         0.104264
 C         2.077107         0.682990         1.317028
 C         3.261208         1.202671         0.409419
 O         4.504216         1.549909         0.999735
 C         2.658194         2.127906        -0.635635
 C         1.889622         0.895070        -1.198812
 C         3.130176         0.048877        -0.739810
 O         2.320155        -1.088130        -0.147964
 H         0.021958        -1.375818         1.060075
 H        -0.873640         0.195653         0.048431
 H        -0.195893        -1.120932        -0.692860
 H         1.554235         1.558812         1.823613
 H         2.329941         0.016302         2.025311
 H         4.948584         0.639993         0.894877
 H         2.142512         3.088483        -0.395108
 H         3.464139         2.283930        -1.376577
 H         1.621185         0.685336        -2.235765
 H         3.947717        -0.286994        -1.247405
