19
Iteration:  3775charge 0 multiplicity 1
 C        -0.066013        -0.504786         0.194024
 C         1.348451        -0.041134         0.090270
 C         2.121188         0.699331         1.285255
 C         3.338497         1.136248         0.359316
 O         4.477229         1.627988         1.072645
 C         2.615734         2.132162        -0.551694
 C         1.925770         0.797483        -1.116303
 C         3.098092        -0.021032        -0.790753
 O         2.360817        -1.122311        -0.234747
 H        -0.358539        -0.562197         1.290397
 H        -0.749424         0.343671         0.080079
 H        -0.132581        -1.315935        -0.554107
 H         1.442170         1.589658         1.540740
 H         2.152403         0.169754         2.148453
 H         5.207142         1.125942         0.744140
 H         2.010989         2.884237        -0.007386
 H         3.146987         2.548371        -1.446873
 H         1.448289         0.757713        -2.141146
 H         3.803295        -0.256850        -1.508345
