19
Iteration:  4089
 C        -0.099918        -0.451984         0.276047
 C         1.364920        -0.026692         0.052524
 C         2.152408         0.630849         1.260982
 C         3.262650         1.138210         0.386194
 O         4.480188         1.542326         0.972606
 C         2.586085         2.179870        -0.608146
 C         1.947657         0.781114        -1.168878
 C         3.191697         0.065149        -0.721715
 O         2.328311        -1.081545        -0.223214
 H        -0.377293        -0.390712         1.266085
 H        -0.656039         0.025890        -0.455638
 H        -0.139555        -1.516762        -0.014632
 H         1.633342         1.382194         1.812218
 H         2.361393        -0.264388         2.049066
 H         4.434369         1.225779         1.972978
 H         2.124027         3.031180        -0.114838
 H         3.283020         2.443183        -1.412753
 H         1.528418         0.850640        -2.138428
 H         3.964726        -0.199009        -1.495348
