19
Iteration:  2373charge 0 multiplicity 1
 C        -0.034204        -0.435233         0.258895
 C         1.386231        -0.055942         0.098911
 C         2.085654         0.627898         1.202863
 C         3.332244         1.146898         0.404370
 O         4.489123         1.601150         1.056097
 C         2.575463         2.187443        -0.533580
 C         1.977231         0.869780        -1.132423
 C         3.122983        -0.075533        -0.780751
 O         2.319460        -1.151895        -0.329118
 H        -0.240517        -0.727926         1.339472
 H        -0.616197         0.291569        -0.232986
 H        -0.350547        -1.315712        -0.376065
 H         1.572833         1.571893         1.528094
 H         2.187645         0.091202         2.055519
 H         4.659365         1.072160         1.964155
 H         1.978410         3.005987        -0.163875
 H         3.154392         2.735028        -1.263199
 H         1.325971         0.922732        -2.038751
 H         4.005854        -0.265817        -1.479737
