19
Iteration:  2239charge 0 multiplicity 1
 C        -0.083069        -0.483270         0.262790
 C         1.377498         0.070203         0.051418
 C         2.122418         0.616440         1.250169
 C         3.255499         1.169427         0.375402
 O         4.455060         1.611257         1.105025
 C         2.614927         2.133081        -0.646801
 C         1.972757         0.823857        -1.162338
 C         3.180603        -0.048484        -0.759878
 O         2.301025        -1.081050        -0.274959
 H         0.023720        -1.521724         0.715391
 H        -0.599110         0.268181         0.898567
 H        -0.771045        -0.507773        -0.617343
 H         1.606989         1.299450         1.965238
 H         2.409816        -0.168315         1.910101
 H         4.747016         0.728825         1.626019
 H         1.988097         2.990518        -0.470699
 H         3.402526         2.370223        -1.377914
 H         1.545123         0.770543        -2.159709
 H         4.216581        -0.323763        -1.035461
