19
Iteration:  4478
 C        -0.061357        -0.504047         0.287769
 C         1.424525        -0.066866         0.116044
 C         2.083892         0.696391         1.232564
 C         3.292339         1.160978         0.340317
 O         4.485159         1.386703         0.970574
 C         2.570551         2.193798        -0.546322
 C         1.853010         0.895149        -1.147057
 C         3.131408         0.056218        -0.745389
 O         2.452292        -1.049655        -0.278037
 H        -0.516522         0.304282        -0.195581
 H        -0.461385        -1.337889        -0.235061
 H        -0.453372        -0.434094         1.344398
 H         1.522640         1.560293         1.784376
 H         2.502625        -0.041723         1.957544
 H         4.387100         0.903431         1.779902
 H         1.947402         3.012450        -0.185911
 H         3.196993         2.745011        -1.182040
 H         1.276844         0.702976        -2.031593
 H         4.031404        -0.234256        -1.390752
