19
Iteration:  4113charge 0 multiplicity 1
 C        -0.098685        -0.439191         0.207777
 C         1.372268        -0.011802         0.102071
 C         2.170316         0.582366         1.369982
 C         3.252077         1.197092         0.455298
 O         4.504857         1.633268         0.970774
 C         2.676108         2.138807        -0.663703
 C         1.890858         0.834337        -1.125904
 C         3.132590        -0.083897        -0.773958
 O         2.322670        -1.116357        -0.313818
 H        -0.293735        -0.404137         1.306041
 H        -0.715204         0.145139        -0.468656
 H        -0.192272        -1.434366        -0.039037
 H         1.471118         1.226821         1.978130
 H         2.419511        -0.285928         2.049186
 H         4.368989         1.757697         1.873237
 H         2.154585         2.924006        -0.116632
 H         3.406019         2.487034        -1.412219
 H         1.352557         0.849734        -2.126425
 H         4.001580        -0.391630        -1.234370
