19
Iteration:  3425charge 0 multiplicity 1
 C        -0.055549        -0.650823         0.217534
 C         1.389929         0.026422         0.078766
 C         2.120390         0.687864         1.278644
 C         3.234712         1.171391         0.463139
 O         4.455883         1.325018         0.982551
 C         2.602458         2.228399        -0.714713
 C         1.919535         0.961689        -1.174993
 C         3.103002         0.080814        -0.707697
 O         2.385720        -1.054878        -0.191759
 H         0.013029        -1.370659         1.062176
 H        -0.642945         0.055316         0.680841
 H        -0.287615        -1.006807        -0.764975
 H         1.613633         1.570708         1.891632
 H         2.518341        -0.200355         1.996865
 H         4.710417         2.159957         1.445947
 H         1.910735         2.996127        -0.370539
 H         3.453476         2.605339        -1.302105
 H         1.406853         0.813890        -2.151821
 H         4.019624        -0.264409        -1.243587
