19
Iteration:   306charge 0 multiplicity 1
 C        -0.076744        -0.412979         0.081798
 C         1.336798         0.026067         0.013470
 C         1.948051         0.824913         1.246258
 C         3.322051         1.084476         0.389809
 O         4.502137         1.435566         1.113193
 C         2.669211         2.092077        -0.565028
 C         1.981641         0.864885        -1.197318
 C         3.152664        -0.058158        -0.684437
 O         2.369384        -1.093126        -0.135342
 H        -0.142306        -1.330528         0.655053
 H        -0.823503         0.326805         0.537015
 H        -0.614152        -0.412791        -0.961543
 H         1.360753         1.700699         1.466592
 H         2.081035         0.312208         2.165082
 H         5.212566         0.780328         0.740657
 H         2.107454         2.996242        -0.230688
 H         3.462501         2.473101        -1.235469
 H         1.296965         0.790834        -2.039278
 H         4.070608        -0.418806        -0.961815
