19
Iteration:   756charge 0 multiplicity 1
 C        -0.075851        -0.461293        -0.046838
 C         1.327620         0.100772         0.113428
 C         2.018086         0.829425         1.269628
 C         3.293981         1.116681         0.406746
 O         4.566422         1.341488         0.959594
 C         2.661037         2.151978        -0.604772
 C         1.965665         0.855304        -1.098277
 C         3.098635        -0.107942        -0.680981
 O         2.362434        -1.106401        -0.095289
 H        -0.284463        -1.039748         1.054871
 H        -0.929376         0.262282        -0.007830
 H        -0.178380        -1.162141        -0.873002
 H         1.493379         1.700998         1.492584
 H         2.164733         0.215867         2.118950
 H         4.335353         1.859559         1.675213
 H         2.173191         2.973219        -0.029070
 H         3.360235         2.737827        -1.239500
 H         1.434160         0.897098        -2.036359
 H         4.063214        -0.281223        -1.104223
