19
Iteration:  1895
 C        -0.082933        -0.463274         0.146604
 C         1.348352         0.007452         0.057474
 C         2.075490         0.632645         1.331772
 C         3.209646         1.099218         0.438444
 O         4.494876         1.500303         0.960128
 C         2.665512         2.126093        -0.656023
 C         1.887969         0.867659        -1.123307
 C         3.110098         0.052017        -0.683327
 O         2.451402        -1.091779        -0.203727
 H        -0.367841        -1.165408         0.867889
 H        -0.587362         0.469174         0.294945
 H        -0.322928        -0.868450        -0.844870
 H         1.577904         1.643105         1.679836
 H         2.386509        -0.079847         2.192316
 H         4.599699         1.291985         1.834510
 H         2.242789         3.053609        -0.303573
 H         3.411423         2.454824        -1.341653
 H         1.372298         0.660144        -2.097975
 H         3.937199        -0.104727        -1.336608
