19
Iteration:  1243charge 0 multiplicity 1
 C        -0.030161        -0.368430         0.288707
 C         1.330384         0.033157         0.031351
 C         1.988330         0.750534         1.186965
 C         3.259824         1.153474         0.425946
 O         4.413447         1.473654         1.114815
 C         2.748411         2.053084        -0.670401
 C         1.960501         0.839225        -1.160858
 C         3.157051        -0.017721        -0.718808
 O         2.391220        -1.134175        -0.301782
 H        -0.077082        -1.160700         0.986613
 H        -0.630977         0.419803         0.866122
 H        -0.730610        -0.556315        -0.623375
 H         1.292339         1.498757         1.572855
 H         2.295084         0.080878         2.177461
 H         4.524546         0.855227         1.820546
 H         2.213402         3.025641        -0.420166
 H         3.576877         2.422996        -1.336938
 H         1.620728         0.732080        -2.180120
 H         4.027576        -0.315948        -1.283101
