19
Iteration:   119charge 0 multiplicity 1
 C        -0.039720        -0.390600         0.298395
 C         1.339915         0.021876         0.055703
 C         2.047365         0.743056         1.157137
 C         3.231683         1.167019         0.388910
 O         4.352183         1.432248         1.244055
 C         2.848455         2.151126        -0.732887
 C         2.052333         0.847763        -1.275240
 C         3.136976        -0.047726        -0.779873
 O         2.247595        -1.075316        -0.165679
 H         0.020515        -1.160968         1.045015
 H        -0.681000         0.416336         0.639110
 H        -0.492677        -0.699162        -0.732191
 H         1.363553         1.473457         1.528580
 H         2.123808        -0.028994         1.876506
 H         4.871116         0.578407         1.441840
 H         2.407144         3.110599        -0.362824
 H         3.711512         2.406738        -1.393181
 H         1.617417         0.526568        -2.179580
 H         4.007777        -0.483760        -1.268915
