19
Iteration:  2446charge 0 multiplicity 1
 C        -0.040205        -0.553931         0.168629
 C         1.375149         0.049225         0.102664
 C         2.057878         0.825054         1.214943
 C         3.288671         1.102080         0.436175
 O         4.544886         1.536264         1.005996
 C         2.542392         2.105411        -0.534805
 C         1.871627         0.896505        -1.114355
 C         3.174334        -0.025174        -0.750421
 O         2.369841        -1.137013        -0.247014
 H        -0.035623        -1.597366         0.532792
 H        -0.686794         0.107673         0.647510
 H        -0.543616        -0.430584        -0.778108
 H         1.643498         1.740019         1.561037
 H         2.070282         0.111613         2.178493
 H         4.972620         0.721047         1.353788
 H         1.893518         2.936288        -0.127073
 H         3.330807         2.559449        -1.188001
 H         1.384196         0.787548        -2.071608
 H         4.057761        -0.355927        -1.338380
