19
Iteration:   892
 C        -0.086726        -0.473654         0.009282
 C         1.337310         0.054681         0.157749
 C         1.950429         0.831437         1.207336
 C         3.319776         1.151732         0.420658
 O         4.569342         1.340840         0.954828
 C         2.674674         2.065399        -0.611016
 C         1.974902         0.840048        -1.061071
 C         3.152928        -0.037164        -0.654291
 O         2.337703        -1.046377        -0.117641
 H         0.133325        -1.416350         0.610137
 H        -0.859509         0.166500         0.498209
 H        -0.422656        -0.513254        -1.121309
 H         1.299810         1.782951         1.318413
 H         2.167727         0.257653         2.181708
 H         4.500052         1.961396         1.779137
 H         1.977900         2.863196        -0.294389
 H         3.347786         2.564027        -1.324273
 H         1.479739         0.706072        -2.090027
 H         3.947546        -0.526006        -1.382864
