19
Iteration:  3386charge 0 multiplicity 1
 C        -0.008735        -0.544793         0.281377
 C         1.383031        -0.060219         0.084536
 C         2.057859         0.739019         1.261825
 C         3.270133         1.161908         0.404220
 O         4.552965         1.404876         1.009583
 C         2.534407         2.163160        -0.559553
 C         1.883169         0.922273        -1.156801
 C         3.157709         0.027261        -0.767557
 O         2.411240        -1.120341        -0.312297
 H        -0.177121        -0.778211         1.339338
 H        -0.756173         0.267165        -0.199748
 H        -0.369586        -1.386459        -0.369087
 H         1.603432         1.679861         1.421854
 H         2.074720         0.205932         2.144654
 H         4.426351         1.996628         1.853293
 H         1.950226         2.945653        -0.006368
 H         3.319432         2.612287        -1.203295
 H         1.167861         0.814946        -2.070683
 H         3.970049        -0.069542        -1.460662
