19
Iteration:  3191
 C        -0.007467        -0.478216         0.211512
 C         1.400168         0.012878         0.078142
 C         2.184473         0.620016         1.278616
 C         3.248005         1.172944         0.444603
 O         4.545238         1.483994         0.986590
 C         2.490221         2.102195        -0.606335
 C         1.900699         0.883583        -1.143050
 C         3.120879        -0.015051        -0.766447
 O         2.375289        -1.069659        -0.281466
 H        -0.316417        -0.808777         1.263552
 H        -0.757736         0.350189         0.132051
 H        -0.359373        -1.158072        -0.693317
 H         1.646344         1.387377         2.006844
 H         2.438919        -0.136573         1.940648
 H         4.254242         1.835748         1.938348
 H         1.717216         2.807082        -0.176709
 H         3.248641         2.683019        -1.179056
 H         1.276097         0.930660        -2.071216
 H         4.046710        -0.348915        -1.228489
