19
Iteration:   948charge 0 multiplicity 1
 C        -0.047030        -0.389367         0.201905
 C         1.328969        -0.010905         0.059790
 C         1.956337         0.741934         1.221326
 C         3.259961         1.074050         0.397708
 O         4.491154         1.399735         1.037278
 C         2.735457         2.173853        -0.638784
 C         1.983198         0.858493        -1.150974
 C         3.210107         0.018140        -0.680137
 O         2.326119        -1.141662        -0.200447
 H        -0.339077        -0.898587         1.087797
 H        -0.661070         0.556222         0.311049
 H        -0.326036        -1.182257        -0.614346
 H         1.401869         1.598008         1.635714
 H         2.099501        -0.081397         1.992413
 H         4.317019         2.219085         1.644679
 H         2.209783         3.093686        -0.431587
 H         3.397681         2.437366        -1.459298
 H         1.547814         0.647715        -2.131814
 H         4.113431        -0.367816        -1.165310
