19
Iteration:   638
 C        -0.082913        -0.397291         0.022049
 C         1.349271         0.047784         0.116206
 C         2.061661         0.698496         1.353381
 C         3.259360         1.116624         0.419289
 O         4.513611         1.346472         0.996846
 C         2.610650         2.141881        -0.740492
 C         1.969349         0.885875        -1.138998
 C         3.174444        -0.019348        -0.658288
 O         2.336745        -1.041550        -0.102373
 H        -0.330134        -0.920309         0.955742
 H        -0.678987         0.464849        -0.203110
 H        -0.047362        -1.027523        -0.847968
 H         1.424795         1.494320         1.964761
 H         2.352862        -0.240108         1.874816
 H         4.379687         1.635249         1.910300
 H         2.123117         3.048883        -0.433223
 H         3.337995         2.357682        -1.522958
 H         1.577733         0.741472        -2.175200
 H         4.111077        -0.369362        -1.119766
