19
Iteration:  2667
 C        -0.038823        -0.498859         0.226002
 C         1.347666         0.003803         0.068625
 C         2.056134         0.714455         1.155353
 C         3.353311         1.157406         0.379119
 O         4.596228         1.539506         1.065959
 C         2.564116         2.129009        -0.545071
 C         1.940679         0.862576        -1.125299
 C         3.161726        -0.011454        -0.792057
 O         2.281235        -1.126441        -0.264757
 H         0.039554        -1.598724         0.648295
 H        -0.492956         0.075637         1.013545
 H        -0.612823        -0.643374        -0.758576
 H         1.550478         1.586885         1.568537
 H         2.291336         0.179941         2.112671
 H         4.275549         1.428362         2.077936
 H         1.819008         2.717858         0.079785
 H         3.338121         2.666047        -1.135018
 H         1.246656         0.748819        -2.024866
 H         3.853345        -0.297676        -1.621241
