19
Iteration:   292charge 0 multiplicity 1
 C        -0.124033        -0.414813         0.140529
 C         1.370528         0.016695         0.100084
 C         1.989506         0.752138         1.202905
 C         3.256480         1.132548         0.467183
 O         4.424807         1.422499         1.149664
 C         2.772546         2.087444        -0.683775
 C         1.976982         0.820131        -1.135439
 C         3.192610         0.005226        -0.707381
 O         2.313602        -1.041424        -0.201586
 H        -0.285472        -1.311848         0.734733
 H        -0.618719         0.373551         0.657993
 H        -0.380379        -0.781841        -0.916551
 H         1.495922         1.821458         1.362251
 H         2.084926         0.102837         2.117794
 H         5.191402         0.915293         0.826748
 H         2.228004         2.956160        -0.273792
 H         3.568022         2.260806        -1.426540
 H         1.724560         0.751590        -2.140443
 H         3.913671        -0.222085        -1.520284
