19
Iteration:   958
 C        -0.104982        -0.403849         0.227246
 C         1.382046        -0.071845         0.042791
 C         2.047111         0.769473         1.155270
 C         3.282397         1.161391         0.441935
 O         4.491685         1.442997         1.070220
 C         2.687212         2.114217        -0.626095
 C         1.986395         0.893054        -1.169680
 C         3.159760        -0.080913        -0.649692
 O         2.301819        -1.152907        -0.252609
 H        -0.204428        -0.771211         1.254153
 H        -0.681019         0.532328         0.018297
 H        -0.597734        -1.092257        -0.555254
 H         1.482680         1.599766         1.423788
 H         2.248942         0.180619         2.085895
 H         4.359188         2.193523         1.691944
 H         2.102335         2.939621        -0.229757
 H         3.604430         2.313735        -1.159493
 H         1.609869         0.925310        -2.212713
 H         4.059759        -0.298678        -1.272857
