19
Iteration:  1699charge 0 multiplicity 1
 C        -0.111804        -0.495867         0.222531
 C         1.396083        -0.034905         0.056406
 C         2.092917         0.758616         1.228068
 C         3.380476         1.091218         0.382182
 O         4.478579         1.540486         1.090459
 C         2.652018         2.057319        -0.540696
 C         1.944338         0.908562        -1.166233
 C         3.131884        -0.024228        -0.803301
 O         2.311536        -1.092307        -0.227199
 H        -0.139622        -1.330690         0.965400
 H        -0.739851         0.451514         0.245505
 H        -0.495611        -0.885239        -0.837029
 H         1.608122         1.778057         1.412283
 H         2.129701         0.408056         2.179943
 H         4.429648         0.964986         1.788225
 H         1.982378         2.841875        -0.062870
 H         3.315530         2.516891        -1.332902
 H         1.338770         0.910879        -2.125174
 H         4.060933        -0.203378        -1.403747
