19
Iteration:  1467
 C        -0.064176        -0.385879         0.078203
 C         1.362425        -0.084007         0.107529
 C         1.937343         0.708901         1.261318
 C         3.305425         1.142686         0.399742
 O         4.564901         1.487521         0.928145
 C         2.629364         2.119574        -0.568616
 C         1.916263         0.858643        -1.092731
 C         3.185073         0.005106        -0.684434
 O         2.373954        -1.126006        -0.154650
 H        -0.246950        -1.426511         0.433214
 H        -0.653051         0.311383         0.542564
 H        -0.439994        -0.403664        -0.857827
 H         1.500671         1.747274         1.557853
 H         2.077101         0.054042         2.120989
 H         4.508160         1.084624         1.736297
 H         2.128747         3.021057        -0.289763
 H         3.403039         2.444416        -1.257531
 H         1.304692         0.914741        -1.962646
 H         4.098950        -0.161720        -1.223072
