19
Iteration:  4890charge 0 multiplicity 1
 C        -0.086228        -0.455924         0.265977
 C         1.341413         0.030191         0.091396
 C         2.141858         0.631012         1.295202
 C         3.295203         1.175722         0.382861
 O         4.575372         1.437097         0.919075
 C         2.486714         2.214475        -0.533264
 C         1.883991         0.775723        -1.134781
 C         3.154357         0.028411        -0.781258
 O         2.417762        -1.093058        -0.283062
 H        -0.725408         0.464503         0.265059
 H        -0.407404        -1.073039        -0.590582
 H        -0.305571        -0.837303         1.280533
 H         1.646660         1.405402         1.969811
 H         2.444334        -0.132178         1.966545
 H         4.534404         1.589288         1.954546
 H         1.590937         2.829977        -0.165039
 H         3.202467         2.761646        -1.120542
 H         1.454479         0.659004        -2.128410
 H         4.033207        -0.216381        -1.463843
