19
Iteration:  2631charge 0 multiplicity 1
 C        -0.009076        -0.515489         0.271694
 C         1.334616        -0.002762         0.095685
 C         2.076774         0.603915         1.259024
 C         3.193140         1.200269         0.338562
 O         4.468716         1.448980         1.000495
 C         2.665379         2.165764        -0.689138
 C         1.955972         0.868469        -1.110357
 C         3.151278         0.105227        -0.675690
 O         2.345068        -1.063907        -0.258820
 H         0.235969        -1.511256         0.807394
 H        -0.691174         0.213195         0.905244
 H        -0.557500        -0.614905        -0.722951
 H         1.471094         1.305092         1.714101
 H         2.452803        -0.257867         1.954623
 H         4.307633         0.856083         1.886482
 H         2.283863         3.190527        -0.349982
 H         3.505048         2.495454        -1.364491
 H         1.416708         0.888861        -2.094901
 H         4.093899        -0.072840        -1.296520
