19
Iteration:  1963
 C        -0.097305        -0.447926         0.246347
 C         1.375899        -0.018983         0.101660
 C         2.097443         0.590804         1.257412
 C         3.263466         1.169685         0.393893
 O         4.368357         1.523066         1.036412
 C         2.677964         2.169376        -0.618939
 C         1.945225         0.880526        -1.165835
 C         3.192909        -0.003362        -0.706316
 O         2.403593        -1.075485        -0.256690
 H        -0.368277        -0.710033         1.244555
 H        -0.693968         0.424448        -0.119304
 H        -0.322768        -1.342443        -0.302858
 H         1.331050         1.450275         1.615552
 H         2.202737        -0.085381         2.072536
 H         4.928123         0.660263         1.168083
 H         2.200493         3.110685        -0.343226
 H         3.454353         2.563270        -1.269848
 H         1.458929         0.740963        -2.088268
 H         3.948839        -0.295790        -1.361907
