19
Iteration:  4311
 C        -0.073172        -0.529976         0.155693
 C         1.375089        -0.010511         0.122949
 C         2.191041         0.667340         1.274628
 C         3.278178         1.197551         0.388397
 O         4.476298         1.477015         0.961258
 C         2.558475         2.097733        -0.650366
 C         1.921120         0.922967        -1.083984
 C         3.149616        -0.046103        -0.724327
 O         2.315001        -1.062118        -0.205406
 H        -0.224631        -0.696622         1.270569
 H        -0.666075         0.395030        -0.083200
 H        -0.219933        -1.360227        -0.457748
 H         1.598572         1.534936         1.789249
 H         2.564746        -0.090959         1.991043
 H         4.608061         1.644707         1.968846
 H         1.962134         3.017858        -0.407546
 H         3.332433         2.537127        -1.315332
 H         1.494712         0.881918        -2.188814
 H         4.040811        -0.338729        -1.272181
