19
Iteration:  2262charge 0 multiplicity 1
 C        -0.120383        -0.475657         0.167569
 C         1.398691        -0.017078         0.113842
 C         2.119564         0.633900         1.301344
 C         3.239716         1.150105         0.422198
 O         4.475387         1.539655         0.964183
 C         2.649691         2.143251        -0.635872
 C         1.973566         0.841026        -1.161213
 C         3.111241         0.012253        -0.671958
 O         2.357486        -1.044355        -0.203881
 H        -0.046939        -1.561814         0.485486
 H        -0.796577         0.100154         0.727155
 H        -0.542872        -0.505028        -0.874542
 H         1.561689         1.483993         1.827909
 H         2.374780        -0.029820         2.026071
 H         4.712431         0.908668         1.615252
 H         2.027454         2.935362        -0.285713
 H         3.398188         2.515491        -1.337460
 H         1.572447         0.709300        -2.159681
 H         3.907042        -0.174070        -1.430813
