19
Iteration:  1434
 C        -0.095051        -0.420435         0.136918
 C         1.346597         0.027375         0.041873
 C         2.143282         0.671848         1.309956
 C         3.269551         1.141483         0.357581
 O         4.494384         1.492187         1.065673
 C         2.603656         2.132221        -0.681451
 C         2.004659         0.836645        -1.184299
 C         3.178497         0.015869        -0.694496
 O         2.265248        -1.085340        -0.177395
 H        -0.102513        -1.412032         0.650956
 H        -0.707676         0.127801         0.735174
 H        -0.449669        -0.573477        -0.786726
 H         1.889064         1.604783         1.979457
 H         2.325903        -0.218609         1.939044
 H         4.386108         1.092116         1.965450
 H         1.991447         2.926463        -0.410318
 H         3.482158         2.416224        -1.257866
 H         1.503158         0.770151        -2.114740
 H         4.069623        -0.343762        -1.161224
