19
Iteration:  2830charge 0 multiplicity 1
 C         0.002038        -0.465579         0.226968
 C         1.385160         0.034288         0.079920
 C         2.116495         0.660712         1.256726
 C         3.330659         1.118607         0.356426
 O         4.485125         1.474668         1.019104
 C         2.527823         2.172918        -0.596600
 C         1.922193         0.896945        -1.165822
 C         3.120506         0.039096        -0.736580
 O         2.334200        -1.115969        -0.238629
 H        -0.004655        -1.397789         0.850497
 H        -0.564973         0.261020         0.718705
 H        -0.365765        -0.831640        -0.760265
 H         1.612875         1.496916         1.794994
 H         2.420382        -0.319062         1.895169
 H         4.371174         1.344502         1.931452
 H         1.806164         2.786716        -0.102883
 H         3.268244         2.611811        -1.220787
 H         1.444472         0.782320        -2.142818
 H         4.004100        -0.200250        -1.321795
