19
Iteration:  1543charge 0 multiplicity 1
 C        -0.071300        -0.408116         0.266639
 C         1.364896         0.003952         0.085864
 C         2.056044         0.741027         1.261846
 C         3.310945         1.115360         0.444376
 O         4.434423         1.524080         1.094923
 C         2.614946         2.144625        -0.594248
 C         1.933477         0.848424        -1.149520
 C         3.164600        -0.061425        -0.812084
 O         2.399458        -1.146617        -0.345986
 H        -0.443507        -0.564594         1.379890
 H        -0.694843         0.360676        -0.200754
 H        -0.299374        -1.286951        -0.324884
 H         1.449731         1.624325         1.369333
 H         2.144687         0.181953         2.140978
 H         4.653915         0.696268         1.744164
 H         2.381160         3.091549        -0.183595
 H         3.411404         2.406350        -1.270699
 H         1.432524         0.819431        -2.124508
 H         4.097810        -0.220789        -1.362190
