19
Iteration:   711
 C        -0.113723        -0.404992         0.209822
 C         1.331705         0.074406         0.000586
 C         2.008863         0.727499         1.277193
 C         3.247716         1.219899         0.432598
 O         4.429006         1.300959         1.093360
 C         2.716640         2.124611        -0.748678
 C         2.050419         0.863363        -1.194567
 C         3.184957        -0.026801        -0.602664
 O         2.338258        -1.117115        -0.212195
 H        -0.063468        -1.444463         0.844459
 H        -0.600789         0.382514         0.873364
 H        -0.461818        -0.660634        -0.831636
 H         1.665318         1.477228         1.936248
 H         2.401416        -0.048562         1.918427
 H         4.483639         2.151940         1.414896
 H         1.993477         2.999297        -0.611491
 H         3.491292         2.529608        -1.453813
 H         1.588250         0.747349        -2.228743
 H         4.062446        -0.266043        -1.260688
