19
Iteration:   904
 C        -0.058960        -0.473233         0.007035
 C         1.336918         0.025893         0.097292
 C         2.033116         0.836888         1.262171
 C         3.323436         1.179081         0.328557
 O         4.553578         1.279932         0.996977
 C         2.636659         2.220401        -0.674765
 C         1.965131         0.812735        -1.087014
 C         3.171721        -0.034402        -0.598786
 O         2.289354        -1.085490        -0.078444
 H        -0.234569        -1.481014         0.417187
 H        -0.844916         0.156645         0.527767
 H        -0.320377        -0.779529        -1.113867
 H         1.401335         1.802648         1.527535
 H         2.161968         0.258274         2.267997
 H         4.564864         1.997795         1.707843
 H         2.094487         2.887498        -0.015458
 H         3.222238         2.693779        -1.466608
 H         1.480872         0.585221        -2.079546
 H         4.053873        -0.294759        -1.290736
