19
Iteration:  1017
 C        -0.167893        -0.369898         0.092102
 C         1.364939        -0.032078         0.116711
 C         1.996265         0.759484         1.280862
 C         3.242338         1.176614         0.413757
 O         4.514309         1.389423         0.985577
 C         2.656740         2.124030        -0.664998
 C         1.992843         0.787882        -1.118483
 C         3.195251        -0.020837        -0.743907
 O         2.403678        -1.083842        -0.155238
 H        -0.580937        -0.787984         1.032847
 H        -0.657591         0.615929         0.050341
 H        -0.370290        -1.130294        -0.628629
 H         1.431411         1.577940         1.940621
 H         2.358155        -0.029870         1.926175
 H         4.424553         1.596879         1.991587
 H         2.190472         3.029719        -0.316894
 H         3.534615         2.487426        -1.232502
 H         1.483591         0.676023        -2.080595
 H         4.094168        -0.279264        -1.296042
