19
Iteration:  2070charge 0 multiplicity 1
 C        -0.065078        -0.419560         0.243649
 C         1.367664        -0.064170         0.063534
 C         2.073806         0.782660         1.159727
 C         3.282914         1.160902         0.405772
 O         4.458509         1.567720         1.086731
 C         2.629725         2.134851        -0.506145
 C         1.943660         0.827371        -1.188101
 C         3.155062        -0.083819        -0.780371
 O         2.381042        -1.157637        -0.291876
 H         0.098605        -1.408968         0.738713
 H        -0.615960         0.312301         0.996723
 H        -0.725279        -0.461730        -0.688836
 H         1.374963         1.494049         1.572421
 H         2.423740         0.183123         2.180733
 H         4.604609         1.054914         1.997773
 H         1.976801         2.986851        -0.188684
 H         3.237929         2.418038        -1.378238
 H         1.500745         0.861222        -2.166768
 H         3.998811        -0.305861        -1.376096
