19
Iteration:  1765charge 0 multiplicity 1
 C        -0.083390        -0.370315         0.158495
 C         1.355781        -0.024106         0.061259
 C         2.047372         0.660021         1.233294
 C         3.290619         1.160836         0.423723
 O         4.517241         1.542125         0.956683
 C         2.630383         2.095966        -0.495849
 C         1.939366         0.823025        -1.100959
 C         3.161888         0.035222        -0.729666
 O         2.392198        -1.155892        -0.217742
 H        -0.396340        -0.708328         1.179931
 H        -0.797832         0.484257        -0.195084
 H        -0.274299        -1.201623        -0.651226
 H         1.366339         1.578955         1.428379
 H         2.042067         0.033251         2.049462
 H         4.737179         0.853336         1.708596
 H         1.860333         2.730231         0.015130
 H         3.224477         2.543286        -1.317153
 H         1.491102         0.894912        -2.157666
 H         4.057528        -0.201160        -1.299085
