19
Iteration:  3092charge 0 multiplicity 1
 C        -0.029657        -0.589383         0.174689
 C         1.395860        -0.059572         0.103181
 C         1.998372         0.739817         1.238747
 C         3.324822         1.156221         0.400455
 O         4.575943         1.398681         0.980683
 C         2.665838         2.146032        -0.528122
 C         1.869493         0.880819        -1.090105
 C         3.048147         0.091612        -0.790462
 O         2.387004        -1.045677        -0.230500
 H        -0.184270        -1.608771         0.739789
 H        -0.629832        -0.112827         0.961181
 H        -0.585136        -0.890594        -0.828654
 H         1.502292         1.671211         1.489549
 H         2.117532         0.290890         2.114298
 H         4.437249         2.128441         1.695492
 H         2.064941         3.017279        -0.188258
 H         3.413022         2.581470        -1.256264
 H         1.343703         0.692611        -2.087082
 H         3.805634        -0.055170        -1.557754
