19
Iteration:  2042
 C        -0.080411        -0.486771         0.157285
 C         1.347240        -0.044212         0.137727
 C         2.015853         0.649287         1.307001
 C         3.312270         1.122854         0.425504
 O         4.509225         1.524044         0.996517
 C         2.650523         2.118739        -0.651364
 C         1.947607         0.857790        -1.133975
 C         3.187856         0.030136        -0.716238
 O         2.329208        -1.033515        -0.244869
 H        -0.073883        -1.469182         0.622760
 H        -0.625608        -0.000804         0.943861
 H        -0.454888        -0.467443        -0.847497
 H         1.382699         1.611741         1.545820
 H         2.378244        -0.035746         1.991377
 H         4.487299         1.358340         2.030192
 H         2.055146         3.007513        -0.421061
 H         3.304698         2.270440        -1.530176
 H         1.431535         0.800474        -2.118774
 H         4.088674        -0.140988        -1.366688
