19
Iteration:  4247
 C        -0.058533        -0.428387         0.211775
 C         1.361169         0.015450         0.143456
 C         2.121690         0.618361         1.257746
 C         3.218840         1.184872         0.424973
 O         4.459024         1.623879         0.979621
 C         2.652656         2.084727        -0.667322
 C         1.979909         0.843081        -1.169639
 C         3.137703        -0.002313        -0.717585
 O         2.340421        -1.124332        -0.214820
 H         0.029910        -1.445686         0.662738
 H        -0.715763         0.020767         1.013017
 H        -0.751382        -0.332794        -0.566224
 H         1.477474         1.385168         1.857102
 H         2.492947        -0.018123         2.033428
 H         4.683122         0.797022         1.419189
 H         2.004506         2.973644        -0.404310
 H         3.404451         2.513432        -1.353909
 H         1.591014         0.470404        -2.180074
 H         3.989291        -0.382543        -1.333044
