19
Iteration:  3404charge 0 multiplicity 1
 C        -0.027792        -0.582723         0.274362
 C         1.366387        -0.027698         0.066953
 C         2.003604         0.769288         1.196060
 C         3.298995         1.146430         0.374136
 O         4.533296         1.328639         1.021830
 C         2.593810         2.177252        -0.524567
 C         1.879163         0.821254        -1.098500
 C         3.157406         0.081930        -0.798190
 O         2.409568        -1.004942        -0.254176
 H         0.044942        -0.972938         1.315584
 H        -0.759533         0.228552         0.294965
 H        -0.164862        -1.251323        -0.556063
 H         1.250620         1.530581         1.484197
 H         2.338495         0.051622         2.078396
 H         4.387776         2.215016         1.527599
 H         1.913882         2.906184        -0.122866
 H         3.104283         2.506561        -1.436115
 H         1.480742         0.959146        -2.149045
 H         4.023096        -0.234224        -1.415669
