19
Iteration:  1794
 C        -0.064233        -0.467515         0.190823
 C         1.370027         0.075591         0.084884
 C         2.152026         0.670827         1.264523
 C         3.300964         1.167025         0.381072
 O         4.398019         1.551379         1.128698
 C         2.656952         2.147226        -0.646647
 C         1.970741         0.787132        -1.134307
 C         3.128549        -0.057104        -0.773111
 O         2.325044        -1.055965        -0.256340
 H        -0.118643        -1.076039         1.076699
 H        -0.648183         0.377155         0.261254
 H        -0.464156        -0.973801        -0.643521
 H         1.702448         1.494509         1.768086
 H         2.256320        -0.158158         2.126745
 H         4.896305         0.653790         1.318345
 H         1.856782         2.723673        -0.238025
 H         3.212166         2.660125        -1.412937
 H         1.445039         0.759269        -2.154775
 H         4.069332        -0.501702        -1.277012
