19
Iteration:  1155
 C        -0.107681        -0.342030         0.097221
 C         1.340342         0.009978         0.046741
 C         2.023685         0.618289         1.300895
 C         3.247298         1.234523         0.424677
 O         4.550351         1.528013         1.013912
 C         2.674566         2.148935        -0.660390
 C         1.958303         0.811799        -1.175762
 C         3.192333        -0.007021        -0.670855
 O         2.306292        -1.178899        -0.124776
 H        -0.414402        -0.688632         0.992676
 H        -0.616990         0.635219        -0.066548
 H        -0.300543        -1.141262        -0.679819
 H         1.386595         1.234689         1.950417
 H         2.340416        -0.349672         1.939978
 H         4.787624         0.735370         1.406794
 H         2.073527         3.088865        -0.495273
 H         3.476285         2.547231        -1.297075
 H         1.450046         0.732835        -2.089431
 H         4.123032        -0.316349        -1.047047
