19
Iteration:  2043charge 0 multiplicity 1
 C        -0.083112        -0.489253         0.163204
 C         1.348206        -0.046653         0.142524
 C         2.012735         0.655339         1.301676
 C         3.314589         1.120184         0.420163
 O         4.507398         1.526457         0.999636
 C         2.655714         2.119642        -0.653097
 C         1.951017         0.855970        -1.129822
 C         3.191372         0.036165        -0.713895
 O         2.328880        -1.039632        -0.251930
 H        -0.099156        -1.496941         0.631827
 H        -0.610666         0.023275         0.922309
 H        -0.478624        -0.438425        -0.850022
 H         1.401915         1.599365         1.546517
 H         2.330564        -0.037817         2.037459
 H         4.497041         1.365543         2.031706
 H         2.045218         2.982742        -0.409724
 H         3.298193         2.287214        -1.537524
 H         1.408880         0.799962        -2.122501
 H         4.100559        -0.134349        -1.395023
