19
Iteration:  3116charge 0 multiplicity 1
 C        -0.023778        -0.588412         0.170359
 C         1.358223         0.045799         0.109601
 C         2.108752         0.697100         1.261016
 C         3.295316         1.181248         0.372639
 O         4.522924         1.386787         0.985306
 C         2.545373         2.159686        -0.539907
 C         1.923340         0.947507        -1.105287
 C         3.152936        -0.004553        -0.703144
 O         2.326240        -1.056593        -0.271766
 H        -0.099513        -1.464104         0.932425
 H        -0.858637        -0.058970         0.590829
 H        -0.209323        -1.192178        -0.831542
 H         1.705506         1.499595         1.766686
 H         2.517516         0.087343         2.046109
 H         4.513333         2.219436         1.354866
 H         1.961666         3.035791        -0.218702
 H         3.124995         2.525231        -1.398058
 H         1.358798         0.956060        -2.038830
 H         4.036790        -0.399442        -1.217803
