19
Iteration:  2197
 C        -0.082638        -0.437108         0.240084
 C         1.347750        -0.034915         0.061372
 C         2.110728         0.677208         1.239599
 C         3.289495         1.133178         0.426135
 O         4.445787         1.547339         1.043938
 C         2.610944         2.105580        -0.585907
 C         1.938122         0.864586        -1.123770
 C         3.155973        -0.037770        -0.753388
 O         2.404215        -1.069896        -0.325054
 H        -0.086563        -1.076588         1.151653
 H        -0.700524         0.408293         0.367277
 H        -0.444092        -1.104919        -0.552740
 H         1.473836         1.670551         1.583653
 H         2.269524         0.119002         2.120866
 H         4.564303         1.075233         1.845736
 H         2.150845         2.969554        -0.173537
 H         3.324767         2.384776        -1.350801
 H         1.308570         0.800031        -2.011888
 H         4.055488        -0.377174        -1.350388
