19
Iteration:   315
 C        -0.081867        -0.395053         0.000976
 C         1.355904         0.073607         0.011520
 C         1.941393         0.832901         1.230893
 C         3.281155         1.160145         0.408559
 O         4.545864         1.419869         1.062376
 C         2.616961         2.129986        -0.564481
 C         1.994611         0.876020        -1.175492
 C         3.129728        -0.118513        -0.613188
 O         2.357769        -1.154676        -0.090736
 H        -0.122304        -1.344687         0.486094
 H        -0.565138         0.270218         0.698756
 H        -0.515662        -0.620844        -1.059164
 H         1.639132         1.858565         1.640233
 H         2.247161         0.116507         1.988870
 H         5.202853         0.703870         0.741061
 H         1.857035         2.724538        -0.037175
 H         3.287246         2.654076        -1.262244
 H         1.573631         0.966544        -2.098391
 H         4.039661        -0.526707        -1.033459
