19
Iteration:   394charge 0 multiplicity 1
 C        -0.127942        -0.389819         0.278202
 C         1.399575         0.097378        -0.011440
 C         2.106475         0.754084         1.242860
 C         3.320842         1.134296         0.409949
 O         4.438202         1.485299         1.175608
 C         2.654728         2.012332        -0.622973
 C         2.031371         0.867996        -1.227279
 C         3.186615        -0.086773        -0.732512
 O         2.287341        -1.119832        -0.327005
 H        -0.310163        -0.770565         1.319501
 H        -0.826514         0.450685        -0.087976
 H        -0.425678        -1.150494        -0.451233
 H         1.582843         1.628949         1.649442
 H         2.258324         0.018652         2.021372
 H         4.264808         1.329492         2.147529
 H         2.037276         2.845564        -0.282458
 H         3.317858         2.545195        -1.303060
 H         1.583602         0.762528        -2.215516
 H         4.010798        -0.428684        -1.233070
