19
Iteration:  1141charge 0 multiplicity 1
 C        -0.118500        -0.289193         0.161135
 C         1.376675         0.031150        -0.002818
 C         2.089468         0.627309         1.210488
 C         3.281825         1.091705         0.439452
 O         4.433571         1.542171         1.072871
 C         2.606396         2.100137        -0.672441
 C         2.048419         0.839634        -1.185867
 C         3.170027        -0.058922        -0.641848
 O         2.322609        -1.085986        -0.155196
 H        -0.066656        -0.876137         1.166634
 H        -0.873597         0.475990         0.194366
 H        -0.475993        -0.995470        -0.572305
 H         1.543875         1.525012         1.756188
 H         2.454191        -0.149698         1.929178
 H         4.930113         0.777030         1.559176
 H         1.919413         2.853714        -0.252768
 H         3.377859         2.359884        -1.431246
 H         1.640040         0.728064        -2.185931
 H         3.955979        -0.338961        -1.353101
