19
Iteration:  4037
 C        -0.069170        -0.637026         0.189955
 C         1.339691         0.014331         0.124762
 C         2.020557         0.737695         1.244642
 C         3.247563         1.164083         0.362078
 O         4.499358         1.450732         1.003548
 C         2.670223         2.179634        -0.688932
 C         1.926954         0.861422        -1.106707
 C         3.107654         0.060725        -0.656806
 O         2.412161        -0.998816        -0.192824
 H        -0.117953        -0.775771         1.365460
 H        -0.827701         0.119818        -0.165474
 H        -0.227879        -1.560071        -0.359715
 H         1.480564         1.463130         1.821227
 H         2.423002         0.075000         1.950934
 H         5.098380         0.576621         0.960704
 H         2.013755         2.998721        -0.376157
 H         3.444899         2.455886        -1.425713
 H         1.235432         0.771710        -1.936800
 H         3.929339        -0.163096        -1.243793
