19
Iteration:  1271charge 0 multiplicity 1
 C        -0.064795        -0.406260         0.257316
 C         1.320106         0.064405         0.029409
 C         2.081335         0.766366         1.150281
 C         3.359531         1.080373         0.367634
 O         4.436406         1.556373         1.183986
 C         2.676375         2.123256        -0.597644
 C         1.977335         0.832712        -1.216413
 C         3.159824        -0.141178        -0.758423
 O         2.306151        -1.111166        -0.250318
 H        -0.302058        -1.369781         0.857244
 H        -0.587954         0.330139         0.809689
 H        -0.572671        -0.595645        -0.660885
 H         1.570304         1.665249         1.599858
 H         2.275210         0.082442         1.863638
 H         4.665381         0.977473         1.843266
 H         2.070083         2.896812        -0.150643
 H         3.349417         2.665029        -1.238784
 H         1.486865         0.772371        -2.205812
 H         4.006719        -0.626508        -1.256338
