19
Iteration:  1280charge 0 multiplicity 1
 C        -0.109684        -0.395954         0.186830
 C         1.334056         0.100251         0.056874
 C         2.121518         0.704196         1.214772
 C         3.309840         1.148130         0.361901
 O         4.437537         1.551830         1.136447
 C         2.701103         2.041745        -0.645942
 C         1.971638         0.860323        -1.168458
 C         3.152371        -0.102818        -0.690889
 O         2.279838        -1.101644        -0.249058
 H         0.125291        -1.276203         0.764739
 H        -0.696028         0.298151         0.717381
 H        -0.541271        -0.696940        -0.685167
 H         1.664786         1.619215         1.660658
 H         2.430299        -0.058626         1.976153
 H         4.553943         0.894419         1.753621
 H         2.053903         2.651893        -0.087696
 H         3.353115         2.531281        -1.333732
 H         1.671179         0.689739        -2.263883
 H         4.089825        -0.365747        -1.294386
