19
Iteration:  4947charge 0 multiplicity 1
 C        -0.088365        -0.461850         0.269505
 C         1.347479        -0.007009         0.084190
 C         2.177110         0.590515         1.258056
 C         3.365025         1.175392         0.408425
 O         4.508177         1.539959         1.017634
 C         2.592673         2.037583        -0.526987
 C         1.840788         0.888115        -1.090597
 C         3.159840         0.012580        -0.771718
 O         2.319906        -1.131595        -0.326909
 H        -0.685542         0.424952         0.449471
 H        -0.461780        -0.885808        -0.656060
 H        -0.175855        -1.269907         1.091780
 H         1.579382         1.451395         1.754951
 H         2.569905        -0.168748         1.992329
 H         4.686339         2.434207         0.720289
 H         1.892725         2.840288        -0.100598
 H         3.211159         2.592943        -1.244555
 H         1.247679         1.155255        -2.023272
 H         4.111989        -0.187075        -1.417872
