19
Iteration:  4449charge 0 multiplicity 1
 C        -0.017431        -0.458622         0.201485
 C         1.376348         0.044983         0.122961
 C         2.102779         0.633463         1.292584
 C         3.320664         1.143442         0.406722
 O         4.569298         1.517953         0.942720
 C         2.567270         2.095013        -0.526791
 C         1.888751         0.854729        -1.147890
 C         3.059947         0.009993        -0.740959
 O         2.352211        -1.081871        -0.281691
 H        -0.824385         0.343781         0.180906
 H        -0.259916        -1.043857        -0.701440
 H        -0.314902        -0.967187         1.147488
 H         1.581491         1.284080         1.945594
 H         2.499359        -0.292572         1.794829
 H         4.477092         1.612225         1.862624
 H         1.848213         2.863905        -0.183686
 H         3.219462         2.688421        -1.232811
 H         1.510864         0.577416        -2.131821
 H         3.902316        -0.163433        -1.372615
