19
Iteration:   442
 C        -0.158563        -0.437166         0.150102
 C         1.352313         0.037113         0.061170
 C         2.032333         0.842794         1.253902
 C         3.264446         1.088443         0.410786
 O         4.480859         1.340559         1.057109
 C         2.706433         2.108146        -0.576300
 C         1.971650         0.797353        -1.155870
 C         3.133043         0.009384        -0.741361
 O         2.422278        -1.075631        -0.224006
 H        -0.334717        -0.845730         1.200322
 H        -0.827702         0.376097        -0.160431
 H        -0.319176        -1.259595        -0.600102
 H         1.455538         1.647687         1.436013
 H         2.179664         0.274632         2.166792
 H         4.393606         1.616311         1.999494
 H         2.205161         3.052705        -0.303809
 H         3.567095         2.424872        -1.181963
 H         1.449176         1.006635        -2.172232
 H         4.122928        -0.140527        -1.355467
