19
Iteration:   206charge 0 multiplicity 1
 C        -0.107632        -0.317843        -0.029466
 C         1.350463         0.042754         0.084981
 C         1.986964         0.633437         1.339057
 C         3.305725         1.184954         0.491377
 O         4.582578         1.349896         1.038261
 C         2.642152         2.064035        -0.669396
 C         1.974191         0.788563        -1.117471
 C         3.142691         0.025094        -0.655570
 O         2.333585        -1.067015        -0.143073
 H        -0.530661        -0.691750         0.925160
 H        -0.634493         0.657245        -0.266638
 H        -0.592870        -1.148104        -0.791531
 H         1.469804         1.428815         1.896455
 H         2.208615        -0.213910         1.971983
 H         4.664900         2.264241         0.967346
 H         2.103178         3.021593        -0.435995
 H         3.485896         2.339146        -1.339351
 H         1.621234         0.657767        -2.087115
 H         3.973838        -0.148135        -1.286735
