19
Iteration:  4809charge 0 multiplicity 1
 C         0.005096        -0.500906         0.321302
 C         1.371623         0.043363         0.050571
 C         2.076318         0.762749         1.248002
 C         3.254546         1.160362         0.343382
 O         4.443868         1.329089         1.067357
 C         2.562338         2.175961        -0.644816
 C         1.930933         0.877361        -1.107669
 C         3.102519         0.066492        -0.765870
 O         2.399770        -1.120391        -0.209538
 H        -0.654374         0.164933         0.901647
 H        -0.604310        -0.808042        -0.552384
 H         0.256286        -1.500425         0.727594
 H         1.600034         1.623982         1.629660
 H         2.349600        -0.087078         1.918528
 H         5.220750         1.652297         0.504267
 H         1.950646         2.903817        -0.092593
 H         3.229192         2.756964        -1.329286
 H         1.529174         0.810652        -2.164293
 H         3.938576        -0.131556        -1.412957
