19
Iteration:  4577
 C        -0.071448        -0.364416         0.174401
 C         1.447906        -0.052825         0.120247
 C         2.156877         0.673872         1.244099
 C         3.280884         1.137933         0.409455
 O         4.515971         1.493738         0.938791
 C         2.436786         2.214129        -0.542201
 C         1.915960         0.802774        -1.077712
 C         3.151593        -0.013554        -0.821050
 O         2.391938        -1.154448        -0.217069
 H        -0.496277         0.517813         0.480081
 H        -0.568441        -0.591021        -0.735032
 H        -0.291705        -1.231180         0.862136
 H         1.710937         1.629922         1.622282
 H         2.390326         0.009291         2.105542
 H         4.572457         1.048740         1.811060
 H         1.768520         2.835977         0.024026
 H         3.150325         2.714834        -1.147515
 H         1.392327         0.730936        -1.939523
 H         3.985946        -0.118801        -1.535365
