19
Iteration:  1974charge 0 multiplicity 1
 C        -0.054494        -0.440487         0.195522
 C         1.378580        -0.092547         0.086183
 C         1.953879         0.699442         1.299223
 C         3.247293         1.120814         0.383607
 O         4.500861         1.529662         1.051432
 C         2.661542         2.144315        -0.646185
 C         1.926893         0.906270        -1.096711
 C         3.108507         0.058875        -0.760576
 O         2.427312        -1.158022        -0.257351
 H        -0.210649        -0.665694         1.216751
 H        -0.759528         0.406387         0.006014
 H        -0.248750        -1.221434        -0.504541
 H         1.346371         1.674863         1.685848
 H         2.325081         0.080482         2.065863
 H         4.974089         0.756699         1.352631
 H         2.103607         2.900821        -0.113428
 H         3.408607         2.349522        -1.401049
 H         1.513355         0.803612        -2.051427
 H         3.988789        -0.037585        -1.307316
