19
Iteration:  3643charge 0 multiplicity 1
 C        -0.072190        -0.389107         0.264584
 C         1.369504        -0.014002         0.078606
 C         2.168505         0.658804         1.272391
 C         3.267197         1.201005         0.383954
 O         4.418788         1.523212         1.057285
 C         2.564195         2.046407        -0.623143
 C         1.928353         0.814356        -1.157187
 C         3.177896        -0.021753        -0.717877
 O         2.369299        -1.107440        -0.215057
 H        -0.208703        -1.330460         0.990750
 H        -0.744218         0.486173         0.201261
 H        -0.217437        -0.806501        -0.811027
 H         1.498858         1.362644         1.818309
 H         2.526611        -0.074518         1.860835
 H         4.936156         2.296546         0.785650
 H         1.923275         2.844957        -0.169374
 H         3.265693         2.476522        -1.399202
 H         1.546874         0.682078        -2.201360
 H         3.977588        -0.387082        -1.370565
