19
Iteration:  2978charge 0 multiplicity 1
 C        -0.024842        -0.502318         0.181996
 C         1.371388         0.022404         0.016091
 C         2.205711         0.631812         1.251183
 C         3.287800         1.176920         0.392956
 O         4.526040         1.490246         0.997587
 C         2.531941         2.105117        -0.529301
 C         1.875606         0.902451        -1.156816
 C         3.110163         0.093816        -0.717223
 O         2.325412        -1.081112        -0.213862
 H        -0.255895        -0.802918         1.252273
 H        -0.848239         0.307777        -0.099806
 H         0.008256        -1.389890        -0.437552
 H         1.699260         1.285493         1.970707
 H         2.411105        -0.199784         1.786903
 H         4.526753         0.965915         1.912924
 H         1.931945         2.910238        -0.057881
 H         3.121893         2.618708        -1.317646
 H         1.592493         0.651470        -2.168411
 H         3.855817        -0.293880        -1.463512
