19
Iteration:  2701
 C        -0.059824        -0.461611         0.156245
 C         1.381434        -0.009197         0.145330
 C         2.109735         0.585697         1.351214
 C         3.202533         1.187414         0.422842
 O         4.460094         1.501833         0.920829
 C         2.631549         2.091745        -0.587639
 C         1.945114         0.863745        -1.157904
 C         3.138101         0.083218        -0.744391
 O         2.380836        -1.061492        -0.237967
 H        -0.178226        -1.299800         0.929366
 H        -0.721715         0.359694         0.462882
 H        -0.542436        -0.718530        -0.834406
 H         1.597499         1.388551         2.023198
 H         2.658415        -0.251026         1.814220
 H         4.686636         0.987032         1.808768
 H         2.025661         3.017737        -0.459010
 H         3.559421         2.489271        -1.048889
 H         1.307036         0.664608        -2.020917
 H         3.926831        -0.016983        -1.445623
