19
Iteration:  3101charge 0 multiplicity 1
 C        -0.046744        -0.657717         0.187190
 C         1.337809        -0.047820         0.087684
 C         2.089737         0.802131         1.278837
 C         3.302850         1.125574         0.384341
 O         4.573022         1.405603         0.994955
 C         2.654828         2.189091        -0.554443
 C         1.836289         0.873188        -1.099379
 C         3.121543         0.052858        -0.783226
 O         2.349524        -1.075517        -0.240759
 H         0.077069        -1.588271         0.763718
 H        -0.760869         0.161972         0.584046
 H        -0.467005        -0.704781        -0.815591
 H         1.418395         1.713694         1.572081
 H         2.153015         0.153599         2.123438
 H         4.445512         2.255690         1.575814
 H         2.122210         2.906379         0.106558
 H         3.383209         2.743879        -1.204629
 H         1.322464         0.832975        -2.113126
 H         3.953163        -0.060291        -1.485793
