19
Iteration:  2286charge 0 multiplicity 1
 C        -0.050037        -0.484580         0.098586
 C         1.442203        -0.035045         0.103519
 C         1.980537         0.782976         1.237086
 C         3.314643         1.125184         0.410483
 O         4.565288         1.527560         0.948617
 C         2.598943         2.119743        -0.538000
 C         1.833367         0.869853        -1.110502
 C         3.196781        -0.035327        -0.701609
 O         2.356624        -1.125449        -0.182955
 H        -0.147971        -1.438763         0.653366
 H        -0.678706         0.227212         0.516225
 H        -0.344523        -0.714546        -0.981849
 H         1.531657         1.812357         1.599994
 H         2.077318         0.196012         2.117578
 H         4.805718         0.943770         1.659983
 H         2.082342         2.780057         0.155514
 H         3.086036         2.596300        -1.365275
 H         1.071554         1.092605        -1.874425
 H         3.933991        -0.288958        -1.539435
