19
Iteration:  4114
 C        -0.095942        -0.438373         0.204948
 C         1.376460        -0.013416         0.096560
 C         2.167211         0.581424         1.384596
 C         3.256561         1.191983         0.454528
 O         4.506152         1.635293         0.969294
 C         2.672515         2.142970        -0.661631
 C         1.894110         0.821282        -1.126091
 C         3.134810        -0.082365        -0.777085
 O         2.318134        -1.117424        -0.315036
 H        -0.311218        -0.412142         1.343713
 H        -0.726624         0.185482        -0.483784
 H        -0.166268        -1.444585        -0.034740
 H         1.447478         1.278129         1.954627
 H         2.425443        -0.268844         2.010659
 H         4.362042         1.778840         1.924192
 H         2.178214         2.946026        -0.093672
 H         3.388091         2.484922        -1.428918
 H         1.331657         0.866348        -2.128275
 H         3.974289        -0.385702        -1.262522
