19
Iteration:  3999charge 0 multiplicity 1
 C        -0.003934        -0.522541         0.195581
 C         1.329150         0.013839         0.112248
 C         2.077738         0.766069         1.230212
 C         3.324233         1.144413         0.413246
 O         4.459789         1.599235         0.973646
 C         2.606377         2.102723        -0.614689
 C         1.939624         0.830538        -1.081122
 C         3.150561        -0.081582        -0.725631
 O         2.318627        -1.092531        -0.213375
 H        -0.002082        -1.468494         0.681550
 H        -0.666245         0.340913         0.537163
 H        -0.465497        -0.799069        -0.824112
 H         1.552944         1.727229         1.592370
 H         2.306623        -0.078299         2.099110
 H         5.053626         0.905905         1.408931
 H         1.981640         2.830596        -0.065355
 H         3.238959         2.627390        -1.338772
 H         1.308551         0.855250        -2.006886
 H         4.107929        -0.331011        -1.417600
