19
Iteration:  1196
 C        -0.028125        -0.448864         0.011892
 C         1.343731         0.060874         0.094260
 C         2.026577         0.780235         1.219170
 C         3.319326         1.128377         0.412592
 O         4.571784         1.518437         1.002629
 C         2.653873         2.106095        -0.535271
 C         1.927736         0.877889        -1.127866
 C         3.113687        -0.116044        -0.757742
 O         2.292307        -1.127170        -0.091246
 H        -0.488142        -0.967508         0.982477
 H        -0.786711         0.309991        -0.184870
 H        -0.119638        -1.152980        -0.855748
 H         1.679086         1.792592         1.644316
 H         2.025003         0.014834         2.030952
 H         4.817452         0.825797         1.749626
 H         2.180131         2.925737         0.081569
 H         3.237095         2.680289        -1.292245
 H         1.350887         0.845715        -2.018593
 H         3.959042        -0.441562        -1.333881
