19
Iteration:  1248charge 0 multiplicity 1
 C        -0.058975        -0.338459         0.280302
 C         1.360858        -0.014970         0.026052
 C         1.991237         0.708297         1.192175
 C         3.262032         1.183566         0.422109
 O         4.421928         1.495127         1.132629
 C         2.746656         2.047720        -0.657737
 C         1.988831         0.865537        -1.155168
 C         3.170296        -0.016637        -0.795609
 O         2.347663        -1.146110        -0.253629
 H        -0.057644        -1.271645         0.965639
 H        -0.486169         0.385700         0.927989
 H        -0.714472        -0.621410        -0.461146
 H         1.296369         1.590336         1.318987
 H         2.154661         0.229636         2.092692
 H         4.536442         0.793541         1.897034
 H         2.196896         2.905309        -0.348038
 H         3.489935         2.472280        -1.304949
 H         1.647409         0.770450        -2.242228
 H         4.050000        -0.304639        -1.469819
