19
Iteration:  4411charge 0 multiplicity 1
 C        -0.103652        -0.473410         0.215734
 C         1.332728        -0.008191         0.113051
 C         2.101861         0.648240         1.231682
 C         3.279285         1.155234         0.374059
 O         4.568638         1.485310         0.955220
 C         2.621609         2.131523        -0.562521
 C         1.904937         0.842595        -1.076393
 C         3.109053         0.020278        -0.687596
 O         2.389782        -1.107348        -0.281751
 H        -0.568737         0.181767         0.927963
 H        -0.523433        -0.296553        -0.786972
 H        -0.097723        -1.553720         0.385441
 H         1.589558         1.501549         1.824837
 H         2.384922        -0.121129         1.949555
 H         4.346439         2.070636         1.774596
 H         2.037194         2.954456        -0.064847
 H         3.280116         2.594391        -1.315468
 H         1.363884         0.757559        -2.078269
 H         3.867151        -0.183417        -1.504057
