19
Iteration:  1180charge 0 multiplicity 1
 C        -0.122976        -0.390474        -0.040853
 C         1.345493         0.012114         0.108941
 C         2.071428         0.793427         1.350313
 C         3.316016         1.039561         0.404088
 O         4.503630         1.512666         0.935110
 C         2.642598         2.055148        -0.538433
 C         1.947927         0.840229        -1.061355
 C         3.183499         0.011017        -0.668799
 O         2.315234        -1.123809        -0.167009
 H        -0.434148        -0.823817         0.915813
 H        -0.750161         0.486783        -0.325528
 H        -0.096588        -1.258735        -0.682417
 H         1.484641         1.653867         1.478258
 H         2.262404         0.330851         2.332693
 H         4.945932         0.886760         1.547770
 H         2.039521         2.929679        -0.325919
 H         3.382310         2.429271        -1.247128
 H         1.357208         0.825288        -2.069435
 H         4.057110        -0.260629        -1.368650
