19
Iteration:  4266charge 0 multiplicity 1
 C        -0.086683        -0.371903         0.274365
 C         1.413151        -0.100454         0.029174
 C         2.090588         0.689722         1.278497
 C         3.261100         1.136180         0.418129
 O         4.451282         1.559040         0.931151
 C         2.542018         2.121652        -0.607735
 C         1.976033         0.785840        -1.176403
 C         3.203623        -0.005598        -0.705504
 O         2.407387        -1.121317        -0.209195
 H        -0.511448        -1.275736         0.806268
 H        -0.479944         0.535028         0.777216
 H        -0.395760        -0.252784        -0.727026
 H         1.514307         1.550951         1.751170
 H         2.316411        -0.146372         2.034338
 H         4.622763         1.120197         1.846063
 H         1.923007         2.937914        -0.269502
 H         3.128803         2.656119        -1.385073
 H         1.263848         0.825502        -2.110927
 H         4.045583        -0.269027        -1.217685
