19
Iteration:  1394
 C        -0.124377        -0.413774         0.281736
 C         1.357857        -0.054679         0.056182
 C         2.013001         0.739470         1.233306
 C         3.306990         1.070637         0.465290
 O         4.453464         1.574729         1.112635
 C         2.755271         2.064439        -0.639131
 C         1.960649         0.904486        -1.189467
 C         3.207951         0.021121        -0.829223
 O         2.314090        -1.159049        -0.278587
 H        -0.192325        -1.007656         1.230391
 H        -0.741979         0.529644         0.300162
 H        -0.654567        -1.147743        -0.470449
 H         1.364428         1.606241         1.503788
 H         2.229915         0.145538         2.073735
 H         4.782771         0.885977         1.735383
 H         2.150376         2.879054        -0.170496
 H         3.505888         2.383436        -1.402277
 H         1.378550         1.000552        -2.104872
 H         4.127177        -0.152066        -1.398912
