19
Iteration:  2649charge 0 multiplicity 1
 C        -0.050750        -0.534076         0.289704
 C         1.391117        -0.013446         0.031996
 C         2.077406         0.742352         1.257720
 C         3.295974         1.117297         0.430776
 O         4.466594         1.474500         1.025628
 C         2.637190         2.125765        -0.567013
 C         1.906121         0.908315        -1.187382
 C         3.139045        -0.023119        -0.805926
 O         2.374536        -1.053550        -0.289885
 H        -0.152740        -1.487579         0.702115
 H        -0.576444        -0.000748         1.106756
 H        -0.586031        -0.623623        -0.614203
 H         1.455321         1.638401         1.789129
 H         2.160864         0.094622         2.094999
 H         4.568710         1.392796         2.067374
 H         2.089864         2.996216        -0.292042
 H         3.290979         2.552622        -1.339897
 H         1.486939         0.860840        -2.178755
 H         4.012913        -0.281615        -1.326787
