19
Iteration:   237
 C        -0.111587        -0.364063         0.177814
 C         1.400277         0.041013         0.029084
 C         2.040074         0.802405         1.163585
 C         3.316712         1.112917         0.406921
 O         4.398988         1.395971         1.152786
 C         2.715088         2.101544        -0.525031
 C         2.037753         0.786915        -1.180020
 C         3.156499        -0.076343        -0.700152
 O         2.283722        -1.157994        -0.258441
 H        -0.230125        -0.420730         1.279646
 H        -0.788063         0.478801        -0.073536
 H        -0.549079        -1.212420        -0.502805
 H         1.492594         1.763993         1.508725
 H         2.250906         0.137517         2.058441
 H         4.837341         2.296258         0.875313
 H         2.125955         2.887659         0.003019
 H         3.436372         2.618536        -1.203547
 H         1.742758         0.749182        -2.185845
 H         4.055134        -0.221219        -1.342695
