19
Iteration:  3916
 C        -0.077477        -0.545833         0.243603
 C         1.355764        -0.024422         0.086534
 C         1.978668         0.781905         1.204894
 C         3.358495         1.156659         0.336374
 O         4.575463         1.455396         1.028186
 C         2.543969         2.121859        -0.557911
 C         1.924408         0.835663        -1.115700
 C         3.174883        -0.033576        -0.757643
 O         2.361194        -1.065863        -0.199900
 H         0.112919        -1.651853         0.370233
 H        -0.530387        -0.233117         1.162525
 H        -0.490769        -0.340368        -0.754617
 H         1.381985         1.618460         1.662341
 H         2.226576         0.228326         2.046669
 H         4.475292         2.337572         1.188139
 H         2.081299         3.001707        -0.100418
 H         3.229620         2.470410        -1.368401
 H         1.474580         1.009313        -2.102774
 H         3.910125        -0.432419        -1.448106
