19
Iteration:  3939
 C        -0.076799        -0.417987         0.253156
 C         1.397539        -0.011877         0.102666
 C         2.149712         0.638941         1.248783
 C         3.244985         1.163212         0.423182
 O         4.455833         1.479774         1.014285
 C         2.571515         2.128988        -0.690415
 C         1.925795         0.790323        -1.184866
 C         3.158385         0.013214        -0.736003
 O         2.377160        -1.104587        -0.239541
 H        -0.000339        -1.550844         0.490487
 H        -0.326931        -0.085758         1.245544
 H        -0.609497        -0.117244        -0.626685
 H         1.569335         1.528672         1.736532
 H         2.454759         0.101909         2.071549
 H         4.287831         2.256276         1.711648
 H         1.981707         2.955278        -0.232339
 H         3.355219         2.608615        -1.323695
 H         1.415107         0.631334        -2.131576
 H         4.049909        -0.242131        -1.154220
