19
Iteration:  2791charge 0 multiplicity 1
 C        -0.086329        -0.561696         0.235299
 C         1.344427        -0.038449         0.142125
 C         2.091152         0.643049         1.306311
 C         3.262915         1.138950         0.360510
 O         4.515868         1.508977         1.001055
 C         2.671383         2.182372        -0.582574
 C         1.879669         0.913781        -1.157466
 C         3.109004         0.077830        -0.734391
 O         2.406345        -1.094493        -0.313856
 H        -0.288231        -0.863099         1.268093
 H        -0.860054         0.291038         0.087591
 H        -0.178032        -1.421671        -0.462515
 H         1.357278         1.528931         1.714043
 H         2.220178         0.055946         2.165194
 H         4.583699         0.781558         1.765251
 H         2.226593         3.170785        -0.291502
 H         3.506572         2.512679        -1.286196
 H         1.480037         0.923512        -2.165555
 H         3.891489        -0.125373        -1.444365
