19
Iteration:  4932charge 0 multiplicity 1
 C        -0.074075        -0.347152         0.279970
 C         1.422794        -0.058545         0.135809
 C         2.130937         0.590365         1.343167
 C         3.219743         1.096013         0.410850
 O         4.529080         1.523769         0.996903
 C         2.519166         2.163301        -0.512079
 C         1.932056         0.831425        -1.140891
 C         3.088718        -0.026248        -0.882919
 O         2.436818        -1.098506        -0.346878
 H        -0.712452         0.554030         0.417910
 H        -0.407157        -0.948159        -0.582979
 H        -0.235830        -0.896110         1.150626
 H         1.571407         1.318125         1.861274
 H         2.365665        -0.179955         1.993610
 H         4.566328         2.453931         1.065735
 H         2.020141         2.890715         0.051637
 H         3.249962         2.493329        -1.224731
 H         1.338075         0.555819        -1.985858
 H         3.881798        -0.287301        -1.570852
