19
Iteration:  4280
 C        -0.104233        -0.306140         0.164858
 C         1.380204        -0.012845         0.083781
 C         2.086722         0.670655         1.224789
 C         3.296064         1.144870         0.369582
 O         4.509791         1.540171         0.962218
 C         2.472127         2.064687        -0.562788
 C         1.904285         0.800140        -1.087396
 C         3.197641        -0.032603        -0.737162
 O         2.463832        -1.138098        -0.203662
 H        -0.106811        -1.110989         0.953746
 H        -0.491742         0.635868         0.648204
 H        -0.688802        -0.765214        -0.617768
 H         1.495869         1.639436         1.513118
 H         2.311882         0.038821         2.075272
 H         4.529978         1.371170         1.870534
 H         1.723173         2.681444        -0.006958
 H         3.189501         2.480538        -1.290386
 H         1.534234         0.635122        -2.141495
 H         4.095805        -0.232259        -1.426695
