19
Iteration:  3808charge 0 multiplicity 1
 C        -0.027680        -0.387287         0.278753
 C         1.385887         0.004047         0.020358
 C         2.200398         0.544152         1.321130
 C         3.255832         1.212879         0.390714
 O         4.417643         1.609891         0.989943
 C         2.589835         2.105265        -0.580134
 C         1.942822         0.753865        -1.170853
 C         3.122492         0.039439        -0.744378
 O         2.344030        -1.094656        -0.267670
 H        -0.246294        -0.577024         1.355797
 H        -0.733703         0.244304        -0.219323
 H        -0.438359        -1.327356        -0.068351
 H         1.479764         1.255012         1.875184
 H         2.526514        -0.229456         1.925714
 H         4.609373         0.925155         1.610677
 H         2.027098         3.011395        -0.303454
 H         3.336188         2.422641        -1.355602
 H         1.556005         0.705171        -2.210742
 H         4.019438        -0.180050        -1.170465
