19
Iteration:  1520charge 0 multiplicity 1
 C        -0.084458        -0.444502         0.210001
 C         1.347339        -0.027243         0.011811
 C         2.100865         0.622591         1.244819
 C         3.300741         1.119168         0.458908
 O         4.421963         1.519412         1.095294
 C         2.705883         2.145066        -0.729632
 C         1.957097         0.891326        -1.131305
 C         3.101525        -0.003580        -0.701495
 O         2.325386        -1.021519        -0.211660
 H        -0.139079        -0.861339         1.328582
 H        -0.837195         0.362117        -0.004218
 H        -0.308870        -1.267169        -0.452480
 H         1.583584         1.275768         1.800734
 H         2.445136        -0.233904         1.814229
 H         4.847317         0.803788         1.466871
 H         2.265336         3.078463        -0.444800
 H         3.467756         2.466267        -1.396828
 H         1.570264         0.742423        -2.105745
 H         3.952846        -0.204390        -1.311265
