19
Iteration:  3613charge 0 multiplicity 1
 C        -0.005687        -0.437015         0.173740
 C         1.403865        -0.063979         0.095947
 C         2.034804         0.731514         1.257658
 C         3.332108         1.135370         0.391229
 O         4.512096         1.494877         1.036744
 C         2.484230         2.141312        -0.581401
 C         1.868538         0.843265        -1.077729
 C         3.170694         0.032956        -0.751270
 O         2.404216        -1.125796        -0.177376
 H        -0.523155        -0.673761         1.057480
 H        -0.713668         0.307732        -0.262096
 H         0.009370        -1.207377        -0.524768
 H         1.390305         1.582402         1.521438
 H         2.145391         0.044180         2.198132
 H         5.218755         1.293355         0.465777
 H         1.884338         2.880084        -0.054448
 H         3.089381         2.577072        -1.380268
 H         1.487976         0.629876        -2.143597
 H         3.849906        -0.187256        -1.526012
