19
Iteration:  4107
 C        -0.081702        -0.449950         0.228184
 C         1.350376        -0.010312         0.124402
 C         2.172429         0.571366         1.274773
 C         3.249630         1.213159         0.441642
 O         4.494153         1.611477         0.956523
 C         2.671486         2.091209        -0.646413
 C         1.906436         0.920180        -1.126024
 C         3.115234        -0.064778        -0.744707
 O         2.339181        -1.114741        -0.293453
 H        -0.419688        -0.286224         1.309691
 H        -0.822178         0.104248        -0.448248
 H        -0.299896        -1.553026        -0.114175
 H         1.615137         1.107990         2.077093
 H         2.467227        -0.203821         1.988691
 H         4.404917         1.677700         2.013964
 H         1.960576         2.928066        -0.355704
 H         3.500443         2.466121        -1.266988
 H         1.440074         0.696878        -2.082644
 H         4.173079        -0.376797        -1.174653
