19
Iteration:   895charge 0 multiplicity 1
 C        -0.074683        -0.472574        -0.005427
 C         1.325289         0.049703         0.162888
 C         1.977051         0.826629         1.218120
 C         3.318956         1.160367         0.374578
 O         4.560806         1.324505         0.965889
 C         2.670457         2.095905        -0.638092
 C         1.971326         0.835434        -1.051339
 C         3.178001        -0.039949        -0.633263
 O         2.324935        -1.053901        -0.111849
 H         0.049528        -1.345199         0.534198
 H        -0.863107         0.133574         0.566155
 H        -0.406048        -0.610800        -1.133927
 H         1.207962         1.802233         1.299643
 H         2.156594         0.242614         2.222803
 H         4.572325         1.954100         1.773420
 H         2.041228         2.883392        -0.203223
 H         3.255577         2.719425        -1.306875
 H         1.519396         0.646466        -2.010354
 H         3.862814        -0.475397        -1.343896
