19
Iteration:  1860
 C        -0.026604        -0.538761         0.122091
 C         1.323030        -0.002363         0.032796
 C         2.163650         0.820327         1.273582
 C         3.305342         1.146881         0.409674
 O         4.515320         1.459526         1.022707
 C         2.562826         2.167064        -0.597342
 C         1.949358         0.854598        -1.192088
 C         3.122342        -0.047702        -0.680627
 O         2.295855        -1.076456        -0.191236
 H        -0.024658        -1.505802         0.580052
 H        -0.574310         0.134426         0.681009
 H        -0.533650        -0.530456        -0.824834
 H         1.799617         1.755224         1.695951
 H         2.346491         0.122261         2.265072
 H         4.551748         1.122966         1.854082
 H         1.846888         2.709631        -0.024756
 H         3.192524         2.714188        -1.269797
 H         1.471232         0.574950        -2.225014
 H         4.104211        -0.271180        -1.268001
