19
Iteration:  4955
 C        -0.046226        -0.532880         0.242231
 C         1.323732        -0.068766         0.064855
 C         2.194782         0.622228         1.222685
 C         3.287831         1.088711         0.365405
 O         4.553361         1.549146         1.058184
 C         2.573416         2.191089        -0.564256
 C         1.866175         0.902798        -1.023828
 C         3.150006         0.003873        -0.737107
 O         2.259934        -1.083668        -0.300596
 H        -0.608780         0.336781         0.616411
 H        -0.437252        -0.885830        -0.710341
 H        -0.078031        -1.272523         1.016379
 H         1.907948         1.489833         1.793893
 H         2.407666        -0.173438         1.838872
 H         4.780967         2.337159         0.480996
 H         2.004493         2.938151        -0.065167
 H         3.323913         2.509709        -1.258370
 H         1.442231         0.827398        -2.042898
 H         4.001827        -0.289431        -1.439091
