19
Iteration:  4338
 C        -0.052095        -0.649143         0.281294
 C         1.331436         0.046133         0.139936
 C         2.015437         0.733357         1.240564
 C         3.308318         1.153422         0.413749
 O         4.550677         1.427513         0.967444
 C         2.705200         2.111784        -0.646621
 C         1.838264         0.937605        -1.146149
 C         3.117894         0.040645        -0.766886
 O         2.342331        -1.052178        -0.227587
 H        -0.455284        -0.584879         1.256222
 H        -0.629764        -0.011998        -0.372829
 H         0.028114        -1.671918        -0.277448
 H         1.458258         1.523000         1.657480
 H         2.151501        -0.038822         2.020456
 H         4.717496         1.877722         1.908473
 H         2.200909         2.981288        -0.210815
 H         3.391375         2.607721        -1.302174
 H         1.608461         0.707288        -2.090640
 H         4.024594        -0.127715        -1.431949
