19
Iteration:  2007charge 0 multiplicity 1
 C        -0.050730        -0.537012         0.113783
 C         1.359300         0.020283         0.132286
 C         2.079882         0.715996         1.273096
 C         3.290065         1.105804         0.339154
 O         4.510009         1.471848         0.968561
 C         2.589709         2.170566        -0.602894
 C         1.980289         0.884800        -1.127305
 C         3.151331         0.004435        -0.721547
 O         2.315661        -1.053533        -0.149901
 H        -0.051988        -1.426239         0.679508
 H        -0.900465         0.164676         0.266622
 H        -0.281778        -0.987427        -0.830859
 H         1.578138         1.597201         1.837147
 H         2.402587         0.164444         2.114714
 H         4.523601         0.967321         1.880313
 H         1.952956         2.923518        -0.099671
 H         3.153988         2.795026        -1.299588
 H         1.563280         0.817855        -2.098388
 H         4.010878        -0.330496        -1.241292
