19
Iteration:  1854
 C        -0.029524        -0.535728         0.135784
 C         1.342959         0.007567         0.074969
 C         2.122025         0.847105         1.255676
 C         3.343527         1.070528         0.409662
 O         4.500694         1.490879         1.008610
 C         2.565307         2.174112        -0.553266
 C         1.952255         0.835660        -1.187447
 C         3.128740        -0.038532        -0.716353
 O         2.306512        -1.098511        -0.220931
 H        -0.100640        -1.525816         0.660572
 H        -0.638393         0.089411         0.939884
 H        -0.491805        -0.547730        -0.895216
 H         1.732590         1.937219         1.490817
 H         2.159775         0.168426         1.993169
 H         4.576968         1.055121         1.937862
 H         1.774950         2.886643        -0.130614
 H         3.334385         2.735295        -1.150710
 H         1.565491         0.653564        -2.142140
 H         4.027775        -0.304841        -1.151739
