19
Iteration:  4414
 C        -0.105288        -0.457188         0.206538
 C         1.356172        -0.014406         0.120485
 C         2.103313         0.654775         1.229048
 C         3.296956         1.152296         0.361099
 O         4.558431         1.501897         0.951074
 C         2.626366         2.126828        -0.527315
 C         1.908993         0.881006        -1.080491
 C         3.101523         0.003955        -0.688430
 O         2.375579        -1.115075        -0.284291
 H        -0.632057         0.156429         0.905919
 H        -0.553062        -0.407362        -0.778397
 H        -0.120024        -1.587774         0.406215
 H         1.565453         1.455301         1.785497
 H         2.408461        -0.118417         1.984546
 H         4.344680         1.997257         1.687903
 H         1.943589         2.889221        -0.110052
 H         3.234138         2.465497        -1.376844
 H         1.477239         0.709284        -1.963353
 H         3.895421        -0.163892        -1.476459
