19
Iteration:   126charge 0 multiplicity 1
 C        -0.098326        -0.395090         0.266955
 C         1.359500        -0.007661         0.045717
 C         1.982531         0.720239         1.201459
 C         3.256475         1.134598         0.387890
 O         4.343845         1.417361         1.155710
 C         2.872044         2.180253        -0.764516
 C         2.081447         0.884261        -1.212536
 C         3.190454        -0.049222        -0.725391
 O         2.262074        -1.036848        -0.166671
 H        -0.188696        -1.294073         1.056438
 H        -0.626663         0.416353         0.822176
 H        -0.584596        -0.855029        -0.711705
 H         1.359402         1.589586         1.645139
 H         2.203042        -0.028634         2.091546
 H         4.594583         0.581132         1.493315
 H         2.373762         3.075931        -0.360111
 H         3.650567         2.335403        -1.544853
 H         1.606162         0.635933        -2.218994
 H         4.140994        -0.392170        -1.302368
