19
Iteration:  3378charge 0 multiplicity 1
 C        -0.033511        -0.521457         0.264429
 C         1.377205        -0.043436         0.120888
 C         2.072709         0.686213         1.298268
 C         3.252914         1.164485         0.368938
 O         4.553777         1.429643         0.990225
 C         2.581289         2.230069        -0.542564
 C         1.877830         0.830589        -1.189265
 C         3.133400         0.062032        -0.761377
 O         2.394646        -1.126588        -0.316524
 H        -0.275337        -0.597851         1.307182
 H        -0.643088         0.250862        -0.079341
 H        -0.030332        -1.399087        -0.389423
 H         1.281364         1.528716         1.672821
 H         2.352650         0.025450         2.115071
 H         4.230929         1.847396         1.887422
 H         1.948680         3.036874        -0.121250
 H         3.327073         2.599614        -1.252051
 H         1.411971         0.840625        -2.107046
 H         4.043315        -0.136967        -1.344012
