19
Iteration:  3134
 C         0.011942        -0.520274         0.206642
 C         1.356314         0.028208         0.051118
 C         2.125935         0.580783         1.332080
 C         3.219134         1.173192         0.455986
 O         4.529154         1.391883         0.970968
 C         2.560725         2.178116        -0.616874
 C         1.916047         0.852322        -1.153701
 C         3.139738         0.109326        -0.749440
 O         2.333696        -1.042467        -0.225271
 H        -0.198977        -1.145865         1.116597
 H        -0.628011         0.416989         0.272276
 H        -0.082173        -1.288274        -0.574508
 H         1.457843         1.330875         1.987443
 H         2.444345        -0.323017         1.836390
 H         4.570911         2.248707         1.280379
 H         1.885026         2.940282        -0.150377
 H         3.354163         2.676678        -1.244730
 H         1.419961         0.611265        -2.161011
 H         3.972190        -0.126652        -1.416654
