19
Iteration:   383charge 0 multiplicity 1
 C        -0.092760        -0.389369         0.189543
 C         1.350041        -0.039673         0.065015
 C         2.068212         0.730550         1.223051
 C         3.357540         1.032756         0.395898
 O         4.453570         1.560811         1.142136
 C         2.723465         2.102622        -0.607548
 C         1.974890         0.833866        -1.187573
 C         3.187102        -0.090261        -0.756204
 O         2.272732        -1.058085        -0.273771
 H        -0.467757        -0.766412         1.162996
 H        -0.579250         0.640243         0.137969
 H        -0.392247        -1.077315        -0.616022
 H         1.491434         1.621163         1.433662
 H         2.159489         0.104040         2.095543
 H         4.292792         1.231919         1.981912
 H         2.122779         2.806703        -0.040153
 H         3.452791         2.488110        -1.323579
 H         1.440397         0.909362        -2.119089
 H         3.998492        -0.414722        -1.288104
