19
Iteration:   108
 C        -0.025081        -0.366697         0.274060
 C         1.350686         0.123218        -0.013640
 C         2.034992         0.794696         1.145954
 C         3.324913         1.147203         0.407723
 O         4.383683         1.461663         1.326010
 C         2.770278         2.057409        -0.688081
 C         1.977542         0.811970        -1.292163
 C         3.091405        -0.107361        -0.723358
 O         2.272913        -1.118207        -0.229083
 H         0.000931        -1.132079         1.024959
 H        -0.656621         0.447381         0.593267
 H        -0.496070        -0.964055        -0.598981
 H         1.636721         1.697211         1.562576
 H         2.395779         0.169621         1.918131
 H         4.972430         0.753601         1.241197
 H         2.120342         2.951972        -0.531451
 H         3.677494         2.314219        -1.286252
 H         1.549713         0.904114        -2.251775
 H         3.946040        -0.406623        -1.352127
