19
Iteration:  2084charge 0 multiplicity 1
 C         0.001786        -0.440523         0.269247
 C         1.398237         0.029168         0.012373
 C         2.056284         0.619952         1.240545
 C         3.298299         1.135377         0.390553
 O         4.407116         1.569609         1.116040
 C         2.600588         2.094285        -0.670750
 C         1.993317         0.852962        -1.178450
 C         3.182070        -0.013889        -0.785488
 O         2.310160        -1.068411        -0.212971
 H        -0.095555        -1.329694         0.876778
 H        -0.495257         0.363026         0.906843
 H        -0.527553        -0.626871        -0.658728
 H         1.589581         1.590140         1.675521
 H         2.285787        -0.279792         1.898265
 H         4.646746         0.809003         1.638533
 H         1.930527         2.819226        -0.170677
 H         3.331624         2.624632        -1.310336
 H         1.416375         0.821903        -2.100969
 H         4.031620        -0.378221        -1.354845
