19
Iteration:  2850
 C        -0.141591        -0.455708         0.228677
 C         1.334376        -0.063264         0.080926
 C         2.165861         0.571748         1.340412
 C         3.213367         1.254492         0.430134
 O         4.472328         1.477881         0.958317
 C         2.623816         2.176459        -0.596866
 C         1.923594         0.805475        -1.154365
 C         3.197352         0.026346        -0.762209
 O         2.413824        -1.009883        -0.268330
 H        -0.159358        -1.456092         0.660779
 H        -0.644545         0.212909         0.857305
 H        -0.689488        -0.527168        -0.682700
 H         1.412948         1.319966         1.806127
 H         2.616635        -0.285848         1.985910
 H         4.493912         1.352417         1.883344
 H         2.083055         3.044027        -0.299891
 H         3.399443         2.330759        -1.316612
 H         1.407494         0.796526        -2.139655
 H         4.060926        -0.302536        -1.411838
