19
Iteration:  3876charge 0 multiplicity 1
 C        -0.000381        -0.592297         0.154279
 C         1.340795         0.017504         0.205190
 C         2.061445         0.678052         1.312762
 C         3.181770         1.230803         0.412382
 O         4.519977         1.325844         0.932692
 C         2.607845         2.161758        -0.663103
 C         1.905370         0.903803        -1.151891
 C         3.155275         0.036893        -0.732096
 O         2.368912        -1.003044        -0.166987
 H         0.235701        -1.598252         0.662513
 H        -0.881954        -0.008246         0.565026
 H        -0.408704        -0.907217        -0.752167
 H         1.414185         1.535868         1.845787
 H         2.443775         0.025740         2.110381
 H         4.937032         2.297714         1.104688
 H         2.151217         3.131721        -0.375950
 H         3.268079         2.409422        -1.509655
 H         1.443895         0.725561        -2.110961
 H         4.104798        -0.264028        -1.051007
