19
Iteration:  3506charge 0 multiplicity 1
 C        -0.014602        -0.429644         0.229915
 C         1.371394         0.028190         0.061871
 C         2.149203         0.587045         1.310670
 C         3.238994         1.223182         0.401863
 O         4.491843         1.484771         1.005475
 C         2.459751         2.088837        -0.685592
 C         1.952090         0.845392        -1.171928
 C         3.157140         0.056131        -0.671086
 O         2.372368        -1.118356        -0.240757
 H         0.110364        -1.406573         0.605651
 H        -0.497351         0.397384         0.850369
 H        -0.725204        -0.469926        -0.585243
 H         1.716658         1.317804         1.887749
 H         2.639526        -0.179673         1.897417
 H         4.353320         1.571554         1.936218
 H         1.949377         3.024420        -0.477753
 H         3.243811         2.299335        -1.398690
 H         1.530806         0.723776        -2.222133
 H         4.041413        -0.176671        -1.252721
