19
Iteration:  2208
 C        -0.052387        -0.439354         0.282836
 C         1.423425        -0.060464         0.082095
 C         2.039457         0.723011         1.215750
 C         3.303209         1.066027         0.360334
 O         4.434974         1.620043         1.090447
 C         2.656948         2.116137        -0.515680
 C         1.944557         0.847615        -1.141705
 C         3.163585        -0.041231        -0.862820
 O         2.341137        -1.143053        -0.301916
 H        -0.184693        -1.164765         1.131477
 H        -0.566730         0.403614         0.644579
 H        -0.586604        -0.804581        -0.636665
 H         1.434362         1.803454         1.342988
 H         2.129559         0.141005         2.077983
 H         4.579370         1.031867         1.774979
 H         2.101124         2.916416        -0.100387
 H         3.325984         2.521687        -1.265088
 H         1.402169         0.899489        -2.088523
 H         4.162570        -0.168988        -1.364244
