19
Iteration:  1608charge 0 multiplicity 1
 C        -0.069447        -0.446452         0.083201
 C         1.390748        -0.039968         0.137412
 C         2.056297         0.722352         1.352673
 C         3.236416         1.152300         0.398495
 O         4.541489         1.514142         0.966488
 C         2.671797         2.113254        -0.572688
 C         1.911249         0.840927        -1.100671
 C         3.138064         0.022009        -0.734127
 O         2.332391        -1.098925        -0.225834
 H        -0.438352        -1.308625         0.727266
 H        -0.688502         0.437793         0.102410
 H        -0.286553        -0.781717        -0.910704
 H         1.476239         1.456386         1.677275
 H         2.200528        -0.010574         2.116909
 H         4.609380         1.196019         1.877707
 H         2.281585         3.026692        -0.192585
 H         3.373413         2.297098        -1.369572
 H         1.426598         0.685831        -2.095603
 H         4.002833        -0.258520        -1.365818
