19
Iteration:  4361
 C        -0.086985        -0.590613         0.282089
 C         1.404997        -0.002620         0.039340
 C         2.050056         0.820268         1.236760
 C         3.255254         1.177965         0.354755
 O         4.533492         1.297177         0.989936
 C         2.610519         2.220781        -0.546223
 C         1.864822         0.877038        -1.169499
 C         3.216702         0.068601        -0.772579
 O         2.355449        -1.096400        -0.206054
 H        -0.271111        -0.375759         1.317941
 H        -0.847804        -0.201459        -0.369350
 H         0.194170        -1.672415         0.108802
 H         1.490193         1.655581         1.484159
 H         2.198052         0.165455         2.115143
 H         4.463221         1.898910         1.660903
 H         2.074000         3.066405        -0.136451
 H         3.133439         2.698364        -1.364014
 H         1.364307         0.628915        -2.023501
 H         4.155075        -0.186329        -1.248416
