19
Iteration:  4372
 C         0.031852        -0.521852         0.295152
 C         1.337788         0.044585         0.097966
 C         2.058122         0.778021         1.198954
 C         3.277936         1.197590         0.369751
 O         4.463994         1.255435         0.981720
 C         2.554933         2.229089        -0.635065
 C         1.895885         0.833262        -1.146769
 C         3.172839         0.064907        -0.706748
 O         2.404005        -1.082607        -0.237964
 H        -0.499303        -0.383098         1.233283
 H        -0.682716        -0.197887        -0.443774
 H        -0.089679        -1.647899         0.185213
 H         1.529627         1.546571         1.642541
 H         2.407649         0.050100         1.969042
 H         4.571509         1.972171         1.657105
 H         1.945548         2.806410         0.021169
 H         3.311392         2.690426        -1.256851
 H         1.557943         0.731398        -2.107395
 H         4.067288        -0.092505        -1.297280
