19
Iteration:   979charge 0 multiplicity 1
 C        -0.104338        -0.344259         0.226950
 C         1.335403         0.039543         0.062351
 C         2.055683         0.747757         1.255835
 C         3.343644         1.104942         0.447319
 O         4.514109         1.502220         1.155770
 C         2.651134         2.117268        -0.649533
 C         2.014026         0.767393        -1.199243
 C         3.206533        -0.108611        -0.805974
 O         2.274840        -1.093631        -0.276692
 H        -0.239296        -0.644145         1.309865
 H        -0.876094         0.369740        -0.106018
 H        -0.396623        -1.235530        -0.434751
 H         1.574721         1.533312         1.702396
 H         2.168924        -0.050317         2.023784
 H         4.252599         2.075850         1.831573
 H         1.833278         2.710855        -0.213404
 H         3.329489         2.474820        -1.444906
 H         1.551068         0.570006        -2.206734
 H         4.117743        -0.477713        -1.391728
