19
Iteration:  4120
 C        -0.074017        -0.421335         0.213814
 C         1.391993        -0.030008         0.073218
 C         2.122320         0.614060         1.408267
 C         3.298148         1.155392         0.432748
 O         4.507351         1.644470         0.985627
 C         2.631586         2.138441        -0.615897
 C         1.928053         0.785397        -1.133459
 C         3.129901        -0.049982        -0.783452
 O         2.287380        -1.129242        -0.309431
 H        -0.450449        -0.393418         1.190629
 H        -0.696609         0.235649        -0.352675
 H        -0.079131        -1.546396        -0.106297
 H         1.543659         1.419470         1.753732
 H         2.551270        -0.306311         1.966180
 H         4.399833         1.824203         1.872681
 H         2.235450         3.060395        -0.147815
 H         3.298596         2.442197        -1.434823
 H         1.304363         0.835386        -1.972565
 H         4.000028        -0.363288        -1.547338
