19
Iteration:  2145charge 0 multiplicity 1
 C        -0.060953        -0.500912         0.087757
 C         1.337633         0.017453         0.119196
 C         2.042777         0.802590         1.270290
 C         3.310618         1.086560         0.387008
 O         4.530969         1.502518         0.930584
 C         2.593751         2.081192        -0.480468
 C         1.919800         0.852794        -1.080270
 C         3.148970         0.034096        -0.764626
 O         2.379237        -1.106459        -0.191238
 H        -0.375937        -0.910125         1.041772
 H        -0.652572         0.224733        -0.372120
 H        -0.074179        -1.362187        -0.618868
 H         1.631214         1.623097         1.688451
 H         2.077970         0.149600         2.103498
 H         4.696218         0.933475         1.612327
 H         2.030426         2.840614         0.095316
 H         3.178167         2.574524        -1.253388
 H         1.360966         0.854375        -1.999183
 H         4.015032         0.004962        -1.406978
