19
Iteration:   817charge 0 multiplicity 1
 C        -0.065581        -0.301491         0.227872
 C         1.377811        -0.091227         0.039468
 C         2.076579         0.760459         1.163293
 C         3.273147         1.084847         0.354218
 O         4.436837         1.448857         1.128664
 C         2.661980         2.092629        -0.599892
 C         2.018448         0.826325        -1.135479
 C         3.154728        -0.063662        -0.742296
 O         2.349016        -1.115802        -0.201555
 H        -0.182992        -0.505736         1.191918
 H        -0.488347         0.653947        -0.134228
 H        -0.582361        -0.988224        -0.557238
 H         1.404683         1.734965         1.340591
 H         2.229454         0.018055         2.054864
 H         4.133149         1.983557         1.814118
 H         1.966568         2.783876        -0.112824
 H         3.357119         2.445368        -1.356712
 H         1.517742         0.817529        -2.158007
 H         4.069176        -0.224969        -1.411094
