19
Iteration:  4104charge 0 multiplicity 1
 C        -0.078384        -0.467688         0.234606
 C         1.347241        -0.012126         0.122083
 C         2.162433         0.564926         1.240704
 C         3.259105         1.207925         0.429854
 O         4.486081         1.599419         0.965117
 C         2.650205         2.079254        -0.624616
 C         1.933409         0.937425        -1.126806
 C         3.124833        -0.042748        -0.733162
 O         2.338982        -1.115064        -0.277826
 H        -0.538476        -0.252393         1.335272
 H        -0.835932         0.137186        -0.411064
 H        -0.259872        -1.470618        -0.070541
 H         1.639674         1.210148         2.050276
 H         2.583754        -0.194458         1.831206
 H         4.455916         1.621967         1.881507
 H         1.944617         2.945582        -0.486637
 H         3.515824         2.433875        -1.212884
 H         1.422590         0.657847        -2.106814
 H         4.044699        -0.284930        -1.138221
