19
Iteration:  1090charge 0 multiplicity 1
 C        -0.084397        -0.488022         0.215926
 C         1.347104         0.063098         0.035559
 C         2.013645         0.735405         1.217219
 C         3.303360         1.179845         0.392847
 O         4.478114         1.486422         1.108432
 C         2.797795         2.075939        -0.698175
 C         1.928456         0.812755        -1.162397
 C         3.176049        -0.024366        -0.676696
 O         2.279737        -1.055986        -0.215359
 H        -0.183161        -1.343829         0.792389
 H        -0.629884         0.353978         0.763984
 H        -0.601281        -0.708883        -0.825152
 H         1.542808         1.484122         1.748740
 H         2.352410        -0.091766         1.955268
 H         4.228966         1.239510         2.066871
 H         2.329988         3.095255        -0.596451
 H         3.566845         2.121395        -1.481609
 H         1.453582         0.692406        -2.104927
 H         3.988332        -0.226968        -1.311210
