19
Iteration:  3921charge 0 multiplicity 1
 C        -0.045092        -0.544362         0.272952
 C         1.368001        -0.040753         0.073583
 C         1.999904         0.800047         1.217677
 C         3.346003         1.171237         0.318559
 O         4.547174         1.452246         1.034539
 C         2.559028         2.096345        -0.557000
 C         1.953217         0.837117        -1.116343
 C         3.178589        -0.041563        -0.756621
 O         2.355680        -1.073692        -0.211285
 H         0.015004        -1.639850         0.237333
 H        -0.641156         0.023534         1.088289
 H        -0.594266        -0.199857        -0.624292
 H         1.357476         1.624981         1.784123
 H         2.228387         0.028980         2.080770
 H         4.369257         2.469832         1.309194
 H         1.959762         2.967769        -0.210204
 H         3.194087         2.496341        -1.359724
 H         1.467581         0.900407        -2.093558
 H         3.848874        -0.320771        -1.627265
