19
Iteration:  3088
 C        -0.040557        -0.586897         0.188807
 C         1.379106        -0.046618         0.119643
 C         1.968228         0.706115         1.221273
 C         3.309150         1.168962         0.413296
 O         4.570316         1.393044         0.976057
 C         2.644971         2.143304        -0.537185
 C         1.880777         0.910223        -1.092446
 C         3.072552         0.090529        -0.782622
 O         2.413119        -1.038961        -0.235512
 H        -0.016344        -1.576348         0.585379
 H        -0.607427         0.005716         0.971186
 H        -0.489303        -0.772594        -0.680864
 H         1.425291         1.751209         1.390769
 H         2.289392         0.141518         2.220668
 H         4.455895         1.981566         1.674780
 H         2.036725         3.010470        -0.260321
 H         3.364916         2.349638        -1.372953
 H         1.370867         0.752638        -2.023124
 H         3.828760        -0.185611        -1.536958
