19
Iteration:  1312
 C        -0.100871        -0.421079         0.032362
 C         1.340769        -0.043113         0.139983
 C         2.011368         0.664938         1.308728
 C         3.236780         1.175877         0.456409
 O         4.576965         1.512821         0.919283
 C         2.716523         2.094861        -0.627511
 C         1.923689         0.916834        -1.129182
 C         3.084701        -0.049970        -0.649323
 O         2.372599        -1.086336        -0.175689
 H        -0.415483        -1.026098         0.832728
 H        -0.659112         0.515528         0.115644
 H        -0.269270        -0.779079        -0.939407
 H         1.351162         1.429006         1.811058
 H         2.323325        -0.079706         2.201847
 H         4.659161         0.914531         1.779203
 H         2.202802         2.961717        -0.237394
 H         3.499323         2.455214        -1.306086
 H         1.439590         0.817696        -2.198330
 H         4.080038        -0.336567        -1.147440
