19
Iteration:  4611
 C        -0.062491        -0.378711         0.249949
 C         1.360779        -0.027691         0.032975
 C         2.163738         0.569372         1.237730
 C         3.264082         1.092938         0.447085
 O         4.527557         1.521669         0.958335
 C         2.503042         2.135763        -0.597312
 C         1.950406         0.792381        -1.132741
 C         3.145539         0.079516        -0.753785
 O         2.329755        -1.074411        -0.221204
 H        -0.481409         0.168951         1.043990
 H        -0.516248        -0.293796        -0.719095
 H        -0.146279        -1.387200         0.666374
 H         1.802372         1.457549         1.795051
 H         2.508347        -0.251647         1.959181
 H         4.500550         1.636295         1.865733
 H         1.971836         3.047253        -0.337417
 H         3.315550         2.487886        -1.268752
 H         1.390282         0.527229        -1.982254
 H         3.994666         0.041037        -1.441618
