19
Iteration:  1414
 C         0.006363        -0.416439         0.223252
 C         1.350961         0.043351         0.048150
 C         2.065908         0.725806         1.178427
 C         3.357388         1.170536         0.416045
 O         4.453945         1.539502         1.109540
 C         2.672047         2.132074        -0.559144
 C         1.970405         0.832338        -1.169955
 C         3.118929        -0.159679        -0.759626
 O         2.276924        -1.099588        -0.279203
 H        -0.127403        -1.251896         0.916571
 H        -0.599752         0.305849         0.619225
 H        -0.461497        -0.808385        -0.644700
 H         1.425495         1.703399         1.520655
 H         2.232148         0.129779         2.054879
 H         4.527169         1.089259         1.884405
 H         2.024940         2.849718        -0.081131
 H         3.327738         2.518471        -1.319935
 H         1.524831         0.690621        -2.128641
 H         3.888388        -0.444268        -1.447568
