19
Iteration:   379charge 0 multiplicity 1
 C        -0.074345        -0.361466         0.147010
 C         1.323147        -0.080775         0.107237
 C         2.047980         0.696697         1.182153
 C         3.337716         1.048085         0.404436
 O         4.461827         1.574561         1.115003
 C         2.749582         2.121398        -0.591575
 C         1.965852         0.840187        -1.155710
 C         3.174123        -0.077010        -0.770030
 O         2.276451        -1.074598        -0.239748
 H        -0.315096        -0.769112         1.105360
 H        -0.632188         0.545551         0.158604
 H        -0.428644        -1.011013        -0.720448
 H         1.498776         1.753985         1.443994
 H         2.186658         0.093834         2.127031
 H         4.382697         1.146830         2.059710
 H         2.168275         2.892857        -0.048837
 H         3.503362         2.471214        -1.318874
 H         1.437395         0.817429        -2.094808
 H         4.057087        -0.433590        -1.411931
