19
Iteration:  3304
 C        -0.061818        -0.440686         0.219077
 C         1.411908        -0.063076         0.088432
 C         2.079930         0.693634         1.274735
 C         3.257749         1.115654         0.414767
 O         4.479272         1.581419         0.993244
 C         2.568296         2.128860        -0.571605
 C         1.885791         0.888053        -1.137482
 C         3.129490         0.014377        -0.747544
 O         2.393025        -1.137135        -0.276325
 H        -0.152000        -1.314015         0.976665
 H        -0.569388         0.418904         0.637043
 H        -0.219359        -0.909023        -0.795277
 H         1.494810         1.498938         1.661159
 H         2.322865        -0.022280         2.128481
 H         5.041353         0.882567         1.266341
 H         2.087082         2.931468        -0.024804
 H         3.188831         2.608551        -1.336156
 H         1.431941         0.733512        -2.075357
 H         4.116141        -0.220665        -1.209082
