19
Iteration:  3862
 C        -0.004052        -0.581330         0.194352
 C         1.379125         0.016575         0.081210
 C         2.089742         0.714373         1.291321
 C         3.290520         1.172023         0.385391
 O         4.529236         1.353411         0.975683
 C         2.572274         2.179018        -0.663819
 C         1.877208         0.858702        -1.122000
 C         3.115594         0.063319        -0.695471
 O         2.382717        -1.051612        -0.164796
 H        -0.172773        -1.398490         0.971942
 H        -0.735525         0.198026         0.429010
 H        -0.262512        -0.998118        -0.845824
 H         1.429433         1.705401         1.711404
 H         2.361189        -0.061521         1.982916
 H         4.534321         2.227652         1.281684
 H         1.883057         2.937772        -0.266284
 H         3.390094         2.571490        -1.315484
 H         1.203877         0.842310        -2.009846
 H         3.896974        -0.178011        -1.375148
