19
Iteration:  2169
 C        -0.041584        -0.512031         0.113133
 C         1.341798        -0.016002         0.107173
 C         2.140098         0.611776         1.281121
 C         3.244733         1.200617         0.413513
 O         4.539153         1.449571         0.966452
 C         2.545902         2.218470        -0.630559
 C         1.974474         0.869469        -1.181948
 C         3.108855         0.042877        -0.700389
 O         2.323051        -1.030998        -0.152070
 H        -0.187843        -0.945428         1.109800
 H        -0.745582         0.352585        -0.329891
 H        -0.174902        -1.397764        -0.542377
 H         1.690496         1.233325         1.963886
 H         2.437497        -0.191114         2.096712
 H         4.601413         0.932532         1.831656
 H         2.039999         3.156045        -0.231753
 H         3.298959         2.536298        -1.393406
 H         1.371989         0.679762        -2.067311
 H         4.058904        -0.273887        -1.106936
