19
Iteration:  2897
 C        -0.027126        -0.539865         0.201536
 C         1.349166        -0.002737         0.113095
 C         2.156000         0.750705         1.269756
 C         3.277395         1.119715         0.380323
 O         4.497817         1.573801         1.025859
 C         2.571323         2.153062        -0.520420
 C         1.990547         0.915623        -1.202799
 C         3.106151        -0.010401        -0.830737
 O         2.297137        -1.115401        -0.208911
 H        -0.051485        -1.516128         0.687857
 H        -0.722707         0.119174         0.707745
 H        -0.511976        -0.750092        -0.819724
 H         1.725058         1.628461         1.669435
 H         2.475062        -0.229629         1.936283
 H         4.716007         0.719708         1.618984
 H         1.785071         2.709995         0.004590
 H         3.347550         2.601779        -1.125659
 H         1.416986         0.735746        -2.106786
 H         3.977848        -0.222439        -1.386872
