19
Iteration:  1678charge 0 multiplicity 1
 C        -0.056798        -0.442920         0.297242
 C         1.334587        -0.017014         0.051938
 C         1.979119         0.697506         1.247833
 C         3.248848         1.203434         0.426026
 O         4.447008         1.486176         1.079906
 C         2.719832         2.156627        -0.670005
 C         1.937637         0.850296        -1.157742
 C         3.208549         0.012220        -0.722681
 O         2.350570        -1.129273        -0.282300
 H         0.189448        -1.425937         0.744576
 H        -0.703966         0.386165         0.742280
 H        -0.611186        -0.632461        -0.728574
 H         1.337556         1.532011         1.806787
 H         2.197313        -0.065563         1.966592
 H         4.874243         0.721392         1.638258
 H         2.278839         3.166691        -0.336143
 H         3.453981         2.352737        -1.525882
 H         1.625640         0.743005        -2.211787
 H         4.089754        -0.252690        -1.340324
