19
Iteration:  4299charge 0 multiplicity 1
 C        -0.052622        -0.420285         0.226466
 C         1.395681        -0.018493         0.093956
 C         2.111300         0.668416         1.263897
 C         3.288180         1.155606         0.402076
 O         4.548569         1.521382         0.981222
 C         2.566533         2.171838        -0.593855
 C         1.910660         0.787066        -1.187787
 C         3.158661         0.005696        -0.761479
 O         2.355615        -1.106715        -0.184194
 H        -0.529809        -0.972021         1.074747
 H        -0.701218         0.443914        -0.022448
 H        -0.276011        -1.029042        -0.620451
 H         1.580934         1.480049         1.847590
 H         2.377987        -0.162163         1.975720
 H         4.315151         1.515010         1.864505
 H         1.841878         2.778648        -0.053265
 H         3.142447         2.610208        -1.429835
 H         1.265517         0.579411        -2.161695
 H         3.943705        -0.321162        -1.360321
