19
Iteration:  1683charge 0 multiplicity 1
 C        -0.064840        -0.460375         0.252313
 C         1.319911        -0.021440         0.081216
 C         1.997125         0.750380         1.208846
 C         3.242499         1.174998         0.420384
 O         4.476646         1.494730         1.096381
 C         2.719358         2.150426        -0.642869
 C         1.947465         0.829627        -1.138017
 C         3.169519        -0.005606        -0.741992
 O         2.368868        -1.103391        -0.299391
 H        -0.067417        -1.365088         0.902692
 H        -0.612016         0.314475         0.749962
 H        -0.562296        -0.689182        -0.614691
 H         1.384937         1.545044         1.567367
 H         2.240630        -0.081133         2.015249
 H         4.866651         0.878608         1.719165
 H         2.241135         3.040227        -0.304922
 H         3.480162         2.469069        -1.333784
 H         1.516379         0.695785        -2.135100
 H         3.967959        -0.326962        -1.410366
