19
Iteration:  3773
 C        -0.075884        -0.501550         0.187423
 C         1.354292        -0.049823         0.093209
 C         2.131313         0.712179         1.265382
 C         3.322434         1.145177         0.377647
 O         4.488522         1.617897         1.074056
 C         2.618554         2.126993        -0.549436
 C         1.907961         0.793735        -1.120563
 C         3.104980        -0.019884        -0.781568
 O         2.357686        -1.114850        -0.231601
 H        -0.281727        -0.622861         1.227068
 H        -0.724736         0.324154         0.096991
 H        -0.088730        -1.339245        -0.586215
 H         1.409976         1.675512         1.499938
 H         2.153808         0.182876         2.210843
 H         5.176064         1.152265         0.694558
 H         2.036635         2.859237         0.032872
 H         3.171015         2.561926        -1.412440
 H         1.381016         0.704479        -2.109787
 H         3.823170        -0.274169        -1.603791
