19
Iteration:  4779
 C        -0.089939        -0.398291         0.296671
 C         1.422697        -0.094764         0.049495
 C         2.137317         0.673522         1.263717
 C         3.273839         1.127015         0.373625
 O         4.506841         1.478985         1.057781
 C         2.586651         2.090294        -0.618474
 C         1.900497         0.812086        -1.077202
 C         3.135965         0.045508        -0.824816
 O         2.352353        -1.094637        -0.273102
 H        -0.536883         0.595739         0.768480
 H        -0.579102        -0.655206        -0.715800
 H        -0.258126        -1.175349         1.035162
 H         1.574846         1.563280         1.805677
 H         2.315180        -0.192083         1.934336
 H         4.692896         2.352979         0.982358
 H         1.926224         2.820391        -0.096061
 H         3.297106         2.649221        -1.255015
 H         1.362529         0.771548        -2.035142
 H         4.015455        -0.200642        -1.348690
