19
Iteration:   526charge 0 multiplicity 1
 C        -0.061501        -0.316483         0.127102
 C         1.334206        -0.028071        -0.019342
 C         2.041674         0.767977         1.163866
 C         3.303567         1.186320         0.451298
 O         4.502039         1.424985         1.140410
 C         2.650497         2.075310        -0.576554
 C         1.951889         0.770338        -1.162685
 C         3.188198        -0.070023        -0.664058
 O         2.303711        -1.149946        -0.248921
 H        -0.308254        -1.322917         0.655240
 H        -0.449465         0.383069         0.930956
 H        -0.672378        -0.457399        -0.693800
 H         1.515175         1.879069         1.512608
 H         2.167071         0.150872         2.134292
 H         4.663546         2.349699         1.365217
 H         2.083211         2.908007        -0.101599
 H         3.479845         2.371665        -1.266841
 H         1.563039         0.839728        -2.246125
 H         4.122142        -0.385880        -1.201432
