19
Iteration:  1722charge 0 multiplicity 1
 C        -0.032713        -0.474320         0.109434
 C         1.373273         0.084696         0.080951
 C         2.106297         0.656791         1.237333
 C         3.298371         1.153334         0.405723
 O         4.510874         1.500443         1.001721
 C         2.627401         2.168347        -0.586991
 C         1.944517         0.844354        -1.102168
 C         3.089230        -0.067621        -0.712640
 O         2.313013        -1.068595        -0.196540
 H        -0.186238        -0.988947         1.074894
 H        -0.741013         0.393251        -0.193645
 H        -0.207109        -1.204106        -0.771696
 H         1.640888         1.402021         1.972868
 H         2.435555        -0.123670         1.830244
 H         4.358021         1.143572         1.968261
 H         1.938052         2.961232        -0.140153
 H         3.418748         2.575903        -1.276923
 H         1.341296         0.618045        -1.967689
 H         3.903491        -0.314681        -1.372430
