19
Iteration:  3220
 C        -0.033961        -0.594637         0.216876
 C         1.363485        -0.028532         0.111991
 C         2.077138         0.663170         1.255524
 C         3.274780         1.171339         0.380411
 O         4.540226         1.504536         0.935582
 C         2.632033         2.165002        -0.611058
 C         1.878107         0.918743        -1.108034
 C         3.112518         0.061604        -0.698957
 O         2.354451        -1.086035        -0.235494
 H        -0.065741        -1.388762         0.897453
 H        -0.781250         0.210018         0.432096
 H        -0.472914        -0.821786        -0.670189
 H         1.577297         1.562902         1.782607
 H         2.450512        -0.186203         1.964242
 H         4.257204         1.255020         1.872916
 H         2.113976         2.986653        -0.125854
 H         3.445391         2.460415        -1.297086
 H         1.445854         0.889346        -2.177086
 H         4.026400        -0.187190        -1.258857
