19
Iteration:  1432charge 0 multiplicity 1
 C        -0.085616        -0.429313         0.150656
 C         1.369547         0.030867         0.039791
 C         2.136705         0.690580         1.295253
 C         3.263600         1.131607         0.353308
 O         4.492752         1.497567         1.082830
 C         2.614769         2.106883        -0.684954
 C         2.005376         0.843391        -1.174932
 C         3.181058         0.014059        -0.702800
 O         2.245057        -1.088563        -0.183255
 H        -0.029570        -1.411953         0.711690
 H        -0.755520         0.209974         0.791363
 H        -0.397299        -0.553377        -0.879886
 H         1.816439         1.509560         1.911322
 H         2.342223        -0.228744         1.937811
 H         4.404006         1.127601         1.899452
 H         1.977200         2.926694        -0.342383
 H         3.427240         2.549959        -1.300021
 H         1.451845         0.818897        -2.107991
 H         4.089356        -0.391421        -1.145185
