19
Iteration:  2706charge 0 multiplicity 1
 C        -0.074506        -0.450465         0.167449
 C         1.404731        -0.026322         0.137641
 C         2.100374         0.577818         1.345149
 C         3.220620         1.143887         0.467663
 O         4.466462         1.508840         0.928772
 C         2.645686         2.160146        -0.606363
 C         1.908143         0.850628        -1.141142
 C         3.114019         0.077142        -0.758288
 O         2.403011        -1.059239        -0.223561
 H        -0.122263        -1.196921         0.903209
 H        -0.738751         0.448153         0.247213
 H        -0.490089        -0.780185        -0.760325
 H         1.504001         1.383969         1.841875
 H         2.470758        -0.392000         1.763127
 H         4.797869         0.985231         1.577724
 H         1.933743         2.963071        -0.427284
 H         3.538702         2.484283        -1.167728
 H         1.266294         0.682843        -2.016996
 H         4.058201        -0.007421        -1.400705
