19
Iteration:  3388charge 0 multiplicity 1
 C        -0.011913        -0.544645         0.277217
 C         1.391792        -0.059664         0.068394
 C         2.056412         0.741904         1.240973
 C         3.279372         1.157246         0.418974
 O         4.546022         1.397260         1.010860
 C         2.526170         2.136554        -0.565540
 C         1.881398         0.943375        -1.140294
 C         3.158495         0.023923        -0.773424
 O         2.415307        -1.108221        -0.307642
 H        -0.193339        -0.854089         1.295756
 H        -0.714084         0.213243        -0.122168
 H        -0.426756        -1.399341        -0.298133
 H         1.606099         1.818743         1.402513
 H         2.037548         0.247291         2.145325
 H         4.481431         2.034225         1.847709
 H         1.950797         2.919028        -0.006212
 H         3.273816         2.631102        -1.205162
 H         1.223123         0.818632        -1.958258
 H         3.966731        -0.093935        -1.487093
