19
Iteration:  2251charge 0 multiplicity 1
 C        -0.094465        -0.485804         0.216044
 C         1.282200         0.021137         0.133625
 C         2.099561         0.622554         1.346442
 C         3.281152         1.162407         0.418301
 O         4.442143         1.551236         1.019632
 C         2.639865         2.090080        -0.709342
 C         1.986465         0.857131        -1.227200
 C         3.250943         0.068781        -0.710269
 O         2.311831        -1.065055        -0.239774
 H        -0.215289        -1.554000         0.614429
 H        -0.675484         0.068560         0.908344
 H        -0.483837        -0.466293        -0.838505
 H         1.675028         1.424624         2.064674
 H         2.465773        -0.225710         1.763863
 H         4.747254         0.896951         1.578650
 H         2.054884         2.871928        -0.297754
 H         3.410720         2.527346        -1.342301
 H         1.371745         0.700369        -2.098347
 H         4.191816        -0.294529        -1.255836
