19
Iteration:  4451charge 0 multiplicity 1
 C        -0.029799        -0.456140         0.206556
 C         1.374890         0.047613         0.119654
 C         2.113871         0.626470         1.289500
 C         3.326806         1.134389         0.413425
 O         4.563341         1.507364         0.942690
 C         2.552914         2.095244        -0.542003
 C         1.889013         0.853115        -1.122496
 C         3.068624         0.035259        -0.758594
 O         2.358043        -1.086301        -0.268619
 H        -0.875239         0.368389         0.141251
 H        -0.259783        -1.111900        -0.693326
 H        -0.253587        -0.907154         1.158090
 H         1.521956         1.235978         1.921360
 H         2.513259        -0.255712         1.786830
 H         4.471407         1.557700         1.859370
 H         1.879655         2.927364        -0.230159
 H         3.186328         2.714098        -1.247754
 H         1.534260         0.624642        -2.255651
 H         3.947256        -0.166522        -1.313290
