19
Iteration:   464charge 0 multiplicity 1
 C        -0.021104        -0.470834        -0.015434
 C         1.337727        -0.002303         0.132914
 C         1.995563         0.794747         1.248252
 C         3.339500         1.154359         0.385619
 O         4.607669         1.341215         1.048022
 C         2.630650         2.137719        -0.642965
 C         1.929699         0.892883        -1.082669
 C         3.119911        -0.024132        -0.648184
 O         2.256025        -1.084158        -0.142847
 H        -0.234814        -1.255440         0.769994
 H        -0.636117         0.426285         0.042380
 H        -0.100289        -0.953848        -1.033361
 H         1.568950         1.644825         1.541604
 H         2.180192         0.169688         2.115668
 H         4.593036         1.791678         1.908075
 H         2.082555         2.999169        -0.253674
 H         3.230245         2.606857        -1.432399
 H         1.487897         0.876011        -2.185402
 H         3.985082        -0.460601        -1.291614
