19
Iteration:  3478charge 0 multiplicity 1
 C        -0.120994        -0.487351         0.179934
 C         1.400537        -0.044950         0.103898
 C         2.029521         0.690647         1.287157
 C         3.299639         1.200380         0.341280
 O         4.519325         1.520176         0.927031
 C         2.506786         2.115825        -0.500201
 C         1.963295         0.836781        -1.143026
 C         3.219946        -0.034611        -0.783074
 O         2.394579        -1.113057        -0.198683
 H        -0.138472        -1.597873         0.449503
 H        -0.534215         0.196501         0.887702
 H        -0.696255        -0.107355        -0.730472
 H         1.497386         1.707766         1.621301
 H         2.427589         0.013480         2.138583
 H         4.473101         1.883846         1.883647
 H         1.995150         2.898297         0.103433
 H         3.220484         2.546157        -1.249379
 H         1.425331         0.835937        -2.032305
 H         4.085419        -0.462742        -1.376034
