19
Iteration:  1158charge 0 multiplicity 1
 C        -0.111807        -0.363811         0.080479
 C         1.345557         0.007318         0.075122
 C         2.016488         0.629104         1.307166
 C         3.246848         1.243189         0.450552
 O         4.553111         1.532174         0.990987
 C         2.681825         2.149756        -0.663209
 C         1.955520         0.799700        -1.150324
 C         3.172010        -0.003173        -0.676622
 O         2.312702        -1.165972        -0.142455
 H        -0.535099        -0.706494         1.032979
 H        -0.508865         0.669708        -0.154705
 H        -0.279234        -1.117647        -0.704611
 H         1.472726         1.269485         1.920821
 H         2.279649        -0.245357         1.896462
 H         4.750117         0.638447         1.420504
 H         2.101508         3.039460        -0.376756
 H         3.511484         2.487034        -1.287865
 H         1.452957         0.693625        -2.181375
 H         4.181747        -0.373555        -1.028819
