19
Iteration:  1554
 C        -0.104521        -0.400754         0.224273
 C         1.406597        -0.039617         0.062435
 C         2.061022         0.776093         1.216633
 C         3.300248         1.077372         0.418479
 O         4.481157         1.498413         1.091399
 C         2.604750         2.157817        -0.571024
 C         1.979918         0.864358        -1.114410
 C         3.152523        -0.048554        -0.782494
 O         2.369594        -1.126379        -0.330144
 H        -0.284781        -0.550989         1.383562
 H        -0.743448         0.385311        -0.154925
 H        -0.211417        -1.370882        -0.249369
 H         1.537871         1.674802         1.440829
 H         2.116263         0.323128         2.150630
 H         4.705564         0.970369         1.936293
 H         1.815891         2.743079        -0.123739
 H         3.205847         2.636213        -1.332445
 H         1.428070         0.749099        -2.061569
 H         3.974974        -0.399923        -1.433420
