19
Iteration:   230charge 0 multiplicity 1
 C        -0.116219        -0.310118         0.163269
 C         1.358177        -0.018197         0.026724
 C         2.026321         0.771434         1.208712
 C         3.283245         1.141226         0.414653
 O         4.463207         1.387618         1.131602
 C         2.707537         2.132862        -0.555374
 C         1.990996         0.819599        -1.171349
 C         3.221544        -0.069675        -0.670478
 O         2.304331        -1.178205        -0.265355
 H        -0.386034        -0.586031         1.172875
 H        -0.767322         0.533961        -0.222961
 H        -0.439363        -1.252041        -0.440677
 H         1.529909         1.677078         1.433315
 H         2.153739         0.230910         2.093302
 H         4.657478         2.267158         0.800624
 H         2.161845         2.936383        -0.023016
 H         3.454492         2.619568        -1.194583
 H         1.536908         0.759955        -2.170767
 H         4.117251        -0.403623        -1.109183
