19
Iteration:  1869charge 0 multiplicity 1
 C        -0.070431        -0.505950         0.109032
 C         1.377750         0.028358         0.027513
 C         2.125525         0.739609         1.325388
 C         3.262677         1.225901         0.376851
 O         4.547462         1.438120         1.017741
 C         2.563388         2.105942        -0.644143
 C         1.960532         0.830529        -1.156266
 C         3.161496         0.007797        -0.678900
 O         2.297432        -1.054426        -0.150276
 H         0.004455        -1.538813         0.562179
 H        -0.732662         0.180859         0.643166
 H        -0.481894        -0.699311        -0.879242
 H         1.584453         1.435250         1.802039
 H         2.617280        -0.009201         2.074530
 H         4.442010         1.110818         1.850938
 H         1.932833         2.855353        -0.118247
 H         3.082126         2.697429        -1.414103
 H         1.432470         0.820791        -2.146763
 H         3.990283        -0.419880        -1.379468
