19
Iteration:  1041charge 0 multiplicity 1
 C        -0.074135        -0.383559         0.033793
 C         1.376864         0.021280         0.057816
 C         1.996319         0.790757         1.210402
 C         3.311164         1.139100         0.449079
 O         4.589209         1.380526         0.968359
 C         2.621636         2.070068        -0.617008
 C         1.883474         0.822068        -1.112134
 C         3.143731        -0.015217        -0.631501
 O         2.342578        -1.091576        -0.131334
 H        -0.108211        -1.205613         0.850518
 H        -0.749699         0.334025         0.364304
 H        -0.239978        -0.954486        -0.782975
 H         1.419422         1.895397         1.384394
 H         1.977575         0.299453         2.191965
 H         4.619238         1.455163         1.885858
 H         2.073968         2.881996        -0.054806
 H         3.172155         2.618185        -1.454660
 H         1.602947         0.725337        -2.206309
 H         4.177039        -0.258938        -1.069167
