19
Iteration:    17charge 0 multiplicity 1
 C        -0.134989        -0.322730        -0.085169
 C         1.315152        -0.021764        -0.003570
 C         2.101512         0.882143         1.352549
 C         3.279392         1.167883         0.391938
 O         4.591318         1.415312         1.005663
 C         2.659683         2.154242        -0.600690
 C         1.995235         0.831918        -1.149459
 C         3.206890        -0.195010        -0.608474
 O         2.235553        -1.174128        -0.080701
 H        -0.289794        -0.964220         0.853540
 H        -0.603927         0.713651        -0.134900
 H        -0.611645        -1.019581        -0.826070
 H         1.603147         1.870184         1.514350
 H         2.252090         0.189985         2.226459
 H         4.399487         1.487696         1.924716
 H         2.072198         3.007189        -0.169576
 H         3.359306         2.547048        -1.381345
 H         1.370797         0.732707        -2.078054
 H         4.106064        -0.637789        -1.103784
