19
Iteration:  1176
 C        -0.117229        -0.379908        -0.021244
 C         1.345948        -0.026364         0.130985
 C         2.073847         0.781327         1.333288
 C         3.278360         1.080986         0.427973
 O         4.501671         1.506876         0.926069
 C         2.654629         2.042149        -0.551075
 C         1.973045         0.832863        -1.076243
 C         3.164446        -0.012501        -0.643129
 O         2.333178        -1.080513        -0.196398
 H        -0.590902        -0.745106         0.862737
 H        -0.736978         0.471905        -0.315633
 H        -0.167990        -1.265629        -0.740090
 H         1.421206         1.663932         1.580823
 H         2.342494         0.196228         2.357381
 H         4.991836         0.868160         1.534184
 H         2.095103         2.997700        -0.368269
 H         3.368225         2.436469        -1.296298
 H         1.485532         0.709602        -1.976712
 H         3.916321        -0.223196        -1.328579
