19
Iteration:   618
 C        -0.076571        -0.414795         0.002425
 C         1.327358         0.076958         0.034589
 C         2.058840         0.757783         1.233090
 C         3.239710         1.180904         0.403740
 O         4.565802         1.288409         0.964203
 C         2.626654         2.166162        -0.584686
 C         1.967481         0.783422        -1.162334
 C         3.145138         0.012596        -0.620630
 O         2.354370        -1.063963        -0.052222
 H        -0.317946        -0.771389         0.961906
 H        -0.737376         0.374823        -0.265390
 H        -0.058459        -1.330039        -0.712898
 H         1.567229         1.686806         1.584747
 H         2.174685         0.017813         2.034258
 H         4.582172         1.507710         1.987548
 H         1.850468         2.795807        -0.207071
 H         3.351455         2.702653        -1.168119
 H         1.403772         0.696986        -2.054586
 H         3.960640        -0.279206        -1.237062
