19
Iteration:   363
 C        -0.127805        -0.364924         0.049939
 C         1.384608         0.031521         0.015001
 C         2.049440         0.709267         1.275953
 C         3.297434         1.157349         0.444337
 O         4.463849         1.552356         1.038037
 C         2.748889         2.105326        -0.594105
 C         1.958935         0.869869        -1.076371
 C         3.095807        -0.051372        -0.717228
 O         2.344880        -1.202321        -0.151002
 H        -0.445762        -1.196828         0.776052
 H        -0.713415         0.583920         0.259993
 H        -0.319376        -0.783101        -0.908454
 H         1.418040         1.438410         1.601905
 H         2.275488        -0.036311         2.036314
 H         4.778372         0.859263         1.645093
 H         2.278885         3.049052        -0.286304
 H         3.551271         2.227403        -1.338985
 H         1.441707         0.822563        -2.115789
 H         3.865993        -0.292914        -1.438855
