19
Iteration:  2308charge 0 multiplicity 1
 C        -0.059803        -0.555995         0.127311
 C         1.335310         0.019519         0.139385
 C         2.079528         0.713217         1.264684
 C         3.250768         1.194897         0.444584
 O         4.527353         1.482036         0.956333
 C         2.597169         2.160578        -0.570560
 C         1.951832         0.835537        -1.133359
 C         3.142522         0.047024        -0.760346
 O         2.345061        -1.078390        -0.194346
 H        -0.200296        -1.153599         1.046055
 H        -0.696077         0.289620         0.091084
 H        -0.370556        -1.122857        -0.774199
 H         1.711251         1.654476         1.858499
 H         2.324855         0.008647         2.026840
 H         4.769554         0.737163         1.595067
 H         2.053808         3.010148        -0.151628
 H         3.324197         2.410148        -1.335947
 H         1.451930         0.724543        -2.119915
 H         4.062188        -0.234245        -1.380463
