19
Iteration:  3104charge 0 multiplicity 1
 C        -0.053211        -0.654745         0.205096
 C         1.316889        -0.028005         0.090624
 C         2.098085         0.807704         1.296957
 C         3.294371         1.126584         0.383000
 O         4.567077         1.403915         0.995929
 C         2.636115         2.199697        -0.555636
 C         1.840975         0.887318        -1.104975
 C         3.149877         0.039076        -0.771835
 O         2.343755        -1.083727        -0.249298
 H         0.143529        -1.647060         0.773231
 H        -0.707306         0.172676         0.469330
 H        -0.436864        -0.735397        -0.941177
 H         1.497229         1.635463         1.526369
 H         2.278418         0.114802         2.032740
 H         4.444847         2.259163         1.525532
 H         2.110327         2.872294         0.141677
 H         3.336103         2.687004        -1.267723
 H         1.318721         0.890640        -2.105299
 H         4.005520        -0.158133        -1.431262
