19
Iteration:  2905
 C        -0.054015        -0.556968         0.210416
 C         1.330817         0.022791         0.095584
 C         2.157308         0.689498         1.277149
 C         3.263488         1.141559         0.386186
 O         4.485402         1.534546         1.039041
 C         2.608758         2.176616        -0.585407
 C         1.952816         0.876814        -1.235220
 C         3.096037         0.014557        -0.762676
 O         2.321494        -1.098396        -0.208765
 H        -0.088897        -1.468929         0.821738
 H        -0.638675         0.118869         0.690123
 H        -0.243593        -0.850536        -0.783162
 H         1.708542         1.481020         1.970496
 H         2.470087        -0.116435         2.036939
 H         5.010885         0.799438         1.516989
 H         1.871559         2.842146        -0.142478
 H         3.287393         2.786617        -1.161033
 H         1.488188         0.991037        -2.213238
 H         3.915612        -0.180414        -1.467500
