19
Iteration:  1457charge 0 multiplicity 1
 C        -0.158766        -0.403356         0.079991
 C         1.370493        -0.013825         0.089680
 C         2.019423         0.692666         1.275812
 C         3.241649         1.177599         0.418934
 O         4.539209         1.460513         0.947884
 C         2.692920         2.092242        -0.643970
 C         1.936644         0.837880        -1.092157
 C         3.144387         0.039206        -0.686308
 O         2.418862        -1.083197        -0.149333
 H        -0.361063        -1.401454         0.481014
 H        -0.733629         0.184452         0.684927
 H        -0.451464        -0.419377        -0.914480
 H         1.222608         1.415699         1.820446
 H         2.328466        -0.063471         1.982173
 H         4.697774         1.186371         1.836233
 H         2.092647         2.803159        -0.154888
 H         3.433592         2.383127        -1.393979
 H         1.394040         0.774165        -2.020855
 H         4.050872        -0.211690        -1.214839
