19
Iteration:   546
 C        -0.151602        -0.368029         0.230051
 C         1.400244         0.068960         0.073994
 C         2.072053         0.674725         1.212977
 C         3.309752         1.027297         0.430238
 O         4.404843         1.416994         1.200032
 C         2.715994         2.160528        -0.753436
 C         2.065929         0.855030        -1.194578
 C         3.178385        -0.062634        -0.763762
 O         2.299230        -1.067650        -0.232855
 H        -0.153126        -1.284506         0.896014
 H        -0.879860         0.344529         0.730566
 H        -0.559508        -0.673732        -0.790442
 H         1.494681         1.641496         1.623030
 H         2.242314        -0.086674         2.025384
 H         4.416646         2.435963         1.454688
 H         1.904941         2.822209        -0.358887
 H         3.554547         2.525908        -1.390824
 H         1.525959         0.591068        -2.073814
 H         4.059848        -0.428409        -1.225954
