19
Iteration:  3918
 C        -0.068546        -0.542624         0.253151
 C         1.361084        -0.033522         0.080377
 C         1.985696         0.788193         1.205977
 C         3.357362         1.163605         0.324670
 O         4.566588         1.453562         1.032023
 C         2.544068         2.109189        -0.553281
 C         1.937457         0.835110        -1.115998
 C         3.183550        -0.042003        -0.762203
 O         2.358951        -1.067615        -0.205184
 H         0.096570        -1.684916         0.314716
 H        -0.586372        -0.117301         1.158419
 H        -0.493063        -0.285344        -0.679692
 H         1.327254         1.663435         1.767838
 H         2.219440         0.167713         2.049816
 H         4.417905         2.391628         1.228720
 H         2.041083         3.004621        -0.147963
 H         3.223390         2.476886        -1.367967
 H         1.483950         0.987445        -2.084818
 H         3.817573        -0.368726        -1.471653
