19
Iteration:  2435charge 0 multiplicity 1
 C        -0.014357        -0.471879         0.116491
 C         1.361817        -0.045752         0.073303
 C         2.029188         0.769111         1.246749
 C         3.347368         1.143873         0.355998
 O         4.537801         1.533535         0.978983
 C         2.571389         2.123637        -0.488325
 C         1.931512         0.783986        -1.066456
 C         3.103178         0.008644        -0.719997
 O         2.352080        -1.068023        -0.227253
 H        -0.130430        -1.473061         0.582050
 H        -0.531232         0.120398         0.794451
 H        -0.304067        -0.657554        -0.919459
 H         1.442224         1.646336         1.336622
 H         2.209540         0.178461         2.297795
 H         4.881288         0.684274         1.530999
 H         1.898786         2.886249         0.024369
 H         3.078954         2.595911        -1.369111
 H         1.299055         0.848938        -1.922713
 H         3.919009        -0.258697        -1.409056
