19
Iteration:  1204charge 0 multiplicity 1
 C        -0.058234        -0.464414         0.046609
 C         1.339061         0.039434         0.075179
 C         2.040343         0.751553         1.228208
 C         3.321818         1.148237         0.387434
 O         4.563634         1.497636         1.026927
 C         2.679865         2.137222        -0.553037
 C         1.974009         0.860284        -1.145158
 C         3.056912        -0.123226        -0.701456
 O         2.297125        -1.039580        -0.109317
 H        -0.339294        -1.154862         0.983671
 H        -0.674994         0.423094        -0.047350
 H        -0.092058        -1.134756        -0.767206
 H         1.400298         1.513958         1.709619
 H         2.294371         0.016736         1.877159
 H         4.768158         0.825937         1.804368
 H         2.024210         2.899390        -0.161167
 H         3.328837         2.619783        -1.312853
 H         1.424324         0.793500        -2.174945
 H         3.809339        -0.559699        -1.453699
