19
Iteration:  4992
 C         0.026914        -0.606483         0.258424
 C         1.422667         0.016578         0.112167
 C         2.095539         0.763235         1.247429
 C         3.259718         1.093128         0.397482
 O         4.481124         1.384092         1.054278
 C         2.531155         2.167485        -0.579678
 C         1.843742         0.928765        -1.103829
 C         3.083405         0.067946        -0.791419
 O         2.402067        -1.008799        -0.258150
 H        -0.629150         0.089430         0.778592
 H        -0.536000        -0.852635        -0.649676
 H         0.040783        -1.632038         0.768436
 H         1.728779         1.721383         1.716266
 H         2.486238         0.011387         2.045962
 H         5.058884         0.944964         0.452801
 H         2.125347         3.195068        -0.371592
 H         3.273616         2.454089        -1.355794
 H         1.157548         0.853758        -1.977948
 H         3.961117        -0.200489        -1.437678
