19
Iteration:  2715
 C        -0.064416        -0.428371         0.167774
 C         1.381846        -0.037465         0.071992
 C         2.089435         0.556677         1.300252
 C         3.256461         1.107060         0.468707
 O         4.496626         1.538455         0.952595
 C         2.604633         2.202578        -0.611682
 C         1.871231         0.872472        -1.096892
 C         3.121141         0.045541        -0.760063
 O         2.429864        -1.078659        -0.221142
 H        -0.324532        -1.033441         0.989791
 H        -0.645826         0.498246         0.294671
 H        -0.212366        -1.015150        -0.687826
 H         1.382136         1.350027         1.861446
 H         2.172713        -0.148132         2.083659
 H         4.896541         0.822736         1.358441
 H         2.033254         3.013563        -0.191360
 H         3.294640         2.479105        -1.419774
 H         1.374683         0.807051        -2.040591
 H         4.042075        -0.193917        -1.246665
