19
Iteration:  3345charge 0 multiplicity 1
 C        -0.067122        -0.457219         0.160131
 C         1.347372         0.029536         0.084308
 C         2.200428         0.553076         1.341350
 C         3.300272         1.113085         0.388061
 O         4.552017         1.586838         0.982844
 C         2.520178         2.139639        -0.564185
 C         1.846197         0.860974        -1.190177
 C         3.132672         0.039461        -0.749561
 O         2.369833        -1.109315        -0.237007
 H        -0.380265        -0.868812         1.121300
 H        -0.769258         0.242967        -0.205573
 H        -0.237165        -1.396889        -0.361281
 H         1.662615         1.482541         2.015903
 H         2.526244        -0.276996         1.971302
 H         4.397779         1.366788         1.946772
 H         1.952009         3.061206        -0.312477
 H         3.294356         2.533291        -1.240599
 H         1.338767         0.888908        -2.104686
 H         4.067528        -0.258376        -1.221135
