19
Iteration:  2159
 C        -0.067210        -0.545399         0.086192
 C         1.379544         0.037482         0.088030
 C         2.115621         0.681709         1.330980
 C         3.263239         1.174101         0.412800
 O         4.510619         1.443293         0.928403
 C         2.564612         2.157994        -0.593557
 C         1.891213         0.901785        -1.127894
 C         3.177799        -0.010974        -0.683647
 O         2.375241        -1.027455        -0.173527
 H        -0.486832        -0.763583         1.091856
 H        -0.936467         0.269914        -0.258329
 H        -0.074184        -1.378116        -0.647090
 H         1.591208         1.544919         1.734303
 H         2.584917        -0.170913         2.029298
 H         4.695568         0.907108         1.805070
 H         1.824643         2.924145        -0.190397
 H         3.339758         2.622019        -1.251917
 H         1.382185         0.873049        -2.098249
 H         3.969023        -0.482600        -1.260631
