19
Iteration:  3057charge 0 multiplicity 1
 C        -0.026389        -0.544037         0.232689
 C         1.356995        -0.006581         0.090250
 C         2.153574         0.670447         1.278208
 C         3.223553         1.204809         0.387611
 O         4.481043         1.343911         0.977875
 C         2.550857         2.190956        -0.598563
 C         1.975290         0.863696        -1.220019
 C         3.124662         0.110543        -0.701042
 O         2.359303        -1.044899        -0.228631
 H         0.254178        -1.538266         0.603007
 H        -0.559954         0.190182         0.930929
 H        -0.637981        -0.517442        -0.655036
 H         1.675838         1.507215         1.851519
 H         2.608139        -0.005648         1.829787
 H         4.328212         1.672247         1.966334
 H         1.777482         2.893400        -0.240352
 H         3.267168         2.650578        -1.310308
 H         1.510622         0.484900        -2.149014
 H         3.986714        -0.246601        -1.261982
