19
Iteration:   973charge 0 multiplicity 1
 C        -0.128449        -0.372502         0.232725
 C         1.321305         0.023080        -0.000639
 C         2.084334         0.733402         1.265828
 C         3.322869         1.163850         0.448326
 O         4.509060         1.489333         1.139024
 C         2.703376         2.070600        -0.608460
 C         2.034039         0.754288        -1.205140
 C         3.182773        -0.092458        -0.801008
 O         2.285808        -1.089485        -0.284825
 H        -0.354977        -0.637830         1.238754
 H        -0.813712         0.504795         0.067106
 H        -0.362959        -1.265886        -0.344997
 H         1.337148         1.660037         1.548695
 H         2.272650         0.135611         2.178726
 H         4.306581         2.186651         1.890519
 H         1.946379         2.729055        -0.160788
 H         3.181361         2.563388        -1.460644
 H         1.497501         0.620979        -2.114352
 H         3.995433        -0.509558        -1.305632
