19
Iteration:  3338charge 0 multiplicity 1
 C        -0.059768        -0.433877         0.172716
 C         1.378351        -0.035745         0.116997
 C         2.140951         0.625869         1.317168
 C         3.317356         1.138870         0.405590
 O         4.541701         1.600070         0.986099
 C         2.545941         2.118875        -0.543654
 C         1.878914         0.883981        -1.142133
 C         3.093234        -0.004215        -0.810733
 O         2.369844        -1.104826        -0.252703
 H        -0.405048        -0.909928         1.152287
 H        -0.843908         0.200183        -0.256668
 H        -0.222750        -1.255590        -0.600215
 H         1.686578         1.354864         1.879470
 H         2.469371        -0.241749         2.006362
 H         4.595330         1.374567         1.871574
 H         1.932547         2.861080        -0.025023
 H         3.166294         2.564347        -1.327734
 H         1.408748         0.636882        -2.120075
 H         4.050497        -0.272517        -1.321439
