19
Iteration:   687
 C        -0.098207        -0.392763         0.250045
 C         1.361028         0.065547         0.003445
 C         1.999182         0.685191         1.173204
 C         3.327714         1.112777         0.410702
 O         4.462973         1.441674         1.128233
 C         2.709365         2.043890        -0.616627
 C         2.051521         0.858901        -1.265661
 C         3.195728        -0.064290        -0.692753
 O         2.253330        -1.065359        -0.220680
 H        -0.040621        -1.286583         0.968306
 H        -0.350183         0.494982         0.925855
 H        -0.681182        -0.698915        -0.774814
 H         1.420835         1.555826         1.497759
 H         2.164324         0.055347         2.067674
 H         4.275623         2.305158         1.602551
 H         2.011070         2.863844        -0.242257
 H         3.492771         2.582761        -1.206940
 H         1.486115         0.604949        -2.198981
 H         4.162944        -0.462064        -1.123166
