19
Iteration:  2653
 C        -0.043822        -0.527610         0.289970
 C         1.375221        -0.025461         0.024509
 C         2.076800         0.780546         1.270877
 C         3.298713         1.133623         0.411966
 O         4.507667         1.492040         1.049478
 C         2.622571         2.101574        -0.524952
 C         1.923354         0.860970        -1.182029
 C         3.106481        -0.021808        -0.839516
 O         2.362433        -1.061098        -0.284161
 H        -0.014788        -1.611833         0.698690
 H        -0.662418         0.084244         1.068194
 H        -0.637958        -0.515143        -0.682319
 H         1.478859         1.579119         1.581458
 H         2.134659         0.012957         2.146646
 H         4.465072         1.428529         1.948260
 H         2.098582         3.032730        -0.155106
 H         3.177780         2.585963        -1.353642
 H         1.656791         0.949632        -2.266562
 H         4.032311        -0.309611        -1.457697
