19
Iteration:   548charge 0 multiplicity 1
 C        -0.146847        -0.366771         0.217917
 C         1.389274         0.064412         0.074814
 C         2.092439         0.651981         1.212793
 C         3.306286         1.032041         0.441497
 O         4.395976         1.413592         1.198503
 C         2.718392         2.168155        -0.770004
 C         2.063604         0.861213        -1.199329
 C         3.177906        -0.060392        -0.765760
 O         2.294823        -1.051897        -0.223657
 H        -0.182005        -1.307622         0.923201
 H        -0.877419         0.333739         0.734717
 H        -0.526156        -0.755519        -0.686627
 H         1.528123         1.690710         1.654910
 H         2.233697        -0.118225         2.062083
 H         4.400899         2.397284         1.456324
 H         1.937354         2.867248        -0.402560
 H         3.602992         2.516791        -1.342004
 H         1.447797         0.591864        -2.143717
 H         4.129142        -0.462081        -1.207596
