19
Iteration:  3610charge 0 multiplicity 1
 C        -0.007246        -0.438493         0.157594
 C         1.414925        -0.045298         0.102718
 C         2.037466         0.712823         1.260451
 C         3.329100         1.153960         0.375450
 O         4.508210         1.491281         1.035605
 C         2.500518         2.122753        -0.571173
 C         1.849737         0.841778        -1.086563
 C         3.164338         0.027941        -0.728729
 O         2.411247        -1.105416        -0.173536
 H        -0.602702        -0.662289         1.136468
 H        -0.768663         0.266475        -0.198395
 H        -0.006477        -1.366279        -0.507076
 H         1.339011         1.535542         1.547323
 H         2.141578         0.101168         2.048903
 H         5.274897         1.165077         0.409179
 H         1.852895         2.897453        -0.089977
 H         3.138849         2.586390        -1.380848
 H         1.529513         0.689904        -2.136455
 H         3.886344        -0.138693        -1.539109
