19
Iteration:    36charge 0 multiplicity 1
 C        -0.130693        -0.294938        -0.052855
 C         1.317650         0.091261         0.139515
 C         2.027587         0.745053         1.233735
 C         3.315078         1.122070         0.468429
 O         4.602886         1.361078         0.977417
 C         2.637898         2.022652        -0.635042
 C         2.037288         0.750653        -1.123570
 C         3.142294        -0.029374        -0.595534
 O         2.270719        -1.064503        -0.087581
 H        -0.691734        -0.986752         0.675720
 H        -0.688267         0.657275        -0.370578
 H        -0.093594        -0.883272        -0.917088
 H         1.533215         1.679656         1.618596
 H         2.248557         0.018131         2.042663
 H         4.556973         2.134506         1.469795
 H         1.953501         2.727289        -0.192276
 H         3.365020         2.516332        -1.243265
 H         1.688254         0.591143        -2.168462
 H         3.946879        -0.342507        -1.171321
