19
Iteration:  1548
 C        -0.113146        -0.408978         0.265221
 C         1.390491        -0.024348         0.063774
 C         2.074329         0.763696         1.241729
 C         3.326528         1.079139         0.457019
 O         4.445972         1.507666         1.094380
 C         2.583321         2.168869        -0.593585
 C         1.956231         0.855113        -1.130630
 C         3.142537        -0.096932        -0.804869
 O         2.406542        -1.128580        -0.353625
 H        -0.386641        -0.443998         1.268498
 H        -0.721746         0.449268        -0.081751
 H        -0.072070        -1.363762        -0.346930
 H         1.404183         1.781422         1.356998
 H         2.087829         0.250904         2.275991
 H         4.630158         0.893354         1.739371
 H         2.143952         3.088199        -0.046607
 H         3.382439         2.487572        -1.328344
 H         1.450274         0.784106        -2.121821
 H         4.078032        -0.281143        -1.367578
