19
Iteration:  2290charge 0 multiplicity 1
 C        -0.064659        -0.493664         0.092436
 C         1.446336        -0.024781         0.092169
 C         1.989368         0.785875         1.259241
 C         3.332143         1.090243         0.386159
 O         4.565648         1.523967         0.953137
 C         2.591951         2.114533        -0.551459
 C         1.844256         0.866068        -1.102279
 C         3.170223        -0.027030        -0.685236
 O         2.365561        -1.079051        -0.198884
 H        -0.252071        -1.354138         0.714069
 H        -0.829048         0.274141         0.634767
 H        -0.104663        -0.885865        -0.917255
 H         1.483246         1.741439         1.467644
 H         2.120706         0.115936         2.318341
 H         4.832426         0.890418         1.693244
 H         1.929719         2.715015         0.151776
 H         3.169398         2.627725        -1.383043
 H         1.148153         1.016013        -1.975080
 H         3.853225        -0.238037        -1.480026
