19
Iteration:  4658charge 0 multiplicity 1
 C        -0.021259        -0.665721         0.277521
 C         1.363317         0.029281         0.076762
 C         2.084692         0.750698         1.282990
 C         3.340285         1.172281         0.364905
 O         4.550462         1.363757         1.001179
 C         2.634141         2.187955        -0.621771
 C         1.858937         0.923041        -1.109401
 C         3.106766         0.000214        -0.784337
 O         2.297473        -1.000098        -0.259888
 H        -0.669966         0.010814         0.910307
 H        -0.435379        -1.060078        -0.668498
 H         0.075058        -1.349229         1.027613
 H         1.573684         1.677297         1.614559
 H         2.226992         0.023824         2.165705
 H         4.181479         1.773186         1.867675
 H         2.182763         3.116573        -0.207592
 H         3.354701         2.549182        -1.422540
 H         1.731447         0.822218        -2.250839
 H         3.769824        -0.402123        -1.554199
