19
Iteration:  2546
 C        -0.116724        -0.432263         0.182441
 C         1.355561         0.010358         0.103404
 C         2.135618         0.564845         1.333011
 C         3.239628         1.114004         0.456751
 O         4.496417         1.510628         0.935117
 C         2.546592         2.200047        -0.645340
 C         1.956121         0.806756        -1.112026
 C         3.187339         0.056761        -0.712539
 O         2.386473        -1.014008        -0.252247
 H        -0.525049        -0.836638         1.159836
 H        -0.697538         0.322417        -0.193034
 H        -0.234852        -1.247691        -0.577697
 H         1.657907         1.179634         2.083185
 H         2.526651        -0.430386         1.766393
 H         4.741946         1.103955         1.704827
 H         1.882072         2.875620        -0.123627
 H         3.412136         2.440266        -1.193730
 H         1.452137         0.658760        -2.105281
 H         3.968002        -0.094404        -1.529774
