19
Iteration:  3871charge 0 multiplicity 1
 C        -0.030008        -0.595767         0.173832
 C         1.360987         0.031622         0.152719
 C         2.090899         0.655256         1.304258
 C         3.226098         1.239796         0.388670
 O         4.526035         1.330623         0.953861
 C         2.606708         2.170267        -0.668009
 C         1.884710         0.900833        -1.152365
 C         3.126523         0.028107        -0.712661
 O         2.374964        -1.010439        -0.160906
 H         0.129871        -1.467440         0.827423
 H        -0.752240         0.079748         0.593710
 H        -0.190902        -0.938929        -0.939951
 H         1.410161         1.498058         1.790086
 H         2.291789         0.039420         2.194521
 H         4.726628         2.205350         1.141003
 H         1.998798         3.043325        -0.383410
 H         3.331416         2.510580        -1.441407
 H         1.203949         0.680055        -2.025050
 H         4.201903        -0.184042        -1.092165
