19
Iteration:   556charge 0 multiplicity 1
 C        -0.085183        -0.396682         0.209766
 C         1.302109         0.042872         0.051364
 C         2.122218         0.623099         1.256225
 C         3.285881         1.118196         0.434899
 O         4.401563         1.380662         1.192169
 C         2.716848         2.136265        -0.763403
 C         2.023951         0.862510        -1.257719
 C         3.196419        -0.058907        -0.732408
 O         2.277894        -1.023878        -0.200768
 H        -0.115150        -1.168794         0.986206
 H        -0.742562         0.451655         0.560816
 H        -0.534277        -0.962667        -0.693883
 H         1.756647         1.545281         1.746645
 H         2.287804        -0.118714         2.047151
 H         4.250766         2.385535         1.458793
 H         2.225144         3.142008        -0.570907
 H         3.659107         2.458795        -1.260890
 H         1.483810         0.810605        -2.140346
 H         4.065663        -0.434054        -1.190316
