19
Iteration:  3684
 C        -0.020970        -0.523970         0.313807
 C         1.373389        -0.033367         0.132827
 C         2.049203         0.762312         1.175416
 C         3.273558         1.216130         0.433299
 O         4.465641         1.546075         1.080746
 C         2.671227         2.082513        -0.601875
 C         1.986835         0.781512        -1.180416
 C         3.140532        -0.043982        -0.753038
 O         2.293713        -1.135399        -0.304780
 H        -0.178758        -1.508872         0.758581
 H        -0.631297         0.016170         1.023995
 H        -0.587558        -0.398028        -0.680476
 H         1.587333         1.733237         1.616494
 H         2.302437         0.082527         2.038684
 H         4.496849         2.462178         0.957871
 H         2.175684         3.014996        -0.252941
 H         3.408494         2.292019        -1.399466
 H         1.463845         0.813380        -2.115113
 H         4.085878        -0.226170        -1.413267
