19
Iteration:   348
 C        -0.106724        -0.386506        -0.036001
 C         1.294582         0.036204         0.140990
 C         2.044161         0.704479         1.359379
 C         3.231151         1.142285         0.461377
 O         4.533510         1.494189         1.014473
 C         2.671549         2.047870        -0.665945
 C         1.952098         0.843477        -1.180223
 C         3.183119        -0.048358        -0.607672
 O         2.344298        -1.056575        -0.180881
 H        -0.281840        -1.259845         0.543643
 H        -0.732193         0.435711         0.318975
 H        -0.468610        -0.531077        -1.126194
 H         1.672047         1.585080         2.014739
 H         2.330631        -0.101466         2.040041
 H         5.007524         0.712841         1.222275
 H         2.106542         2.960045        -0.411798
 H         3.438460         2.450354        -1.336969
 H         1.463778         0.786988        -2.072302
 H         4.135282        -0.356185        -0.999416
