19
Iteration:   353
 C        -0.099907        -0.388446        -0.022961
 C         1.289726         0.034253         0.092978
 C         2.073383         0.733484         1.359037
 C         3.255611         1.138272         0.484582
 O         4.508611         1.526218         1.015153
 C         2.699695         2.069575        -0.660659
 C         1.944210         0.861888        -1.149721
 C         3.154176        -0.077984        -0.623138
 O         2.362318        -1.110939        -0.175350
 H        -0.394549        -1.233820         0.698352
 H        -0.748450         0.480866         0.294738
 H        -0.402125        -0.501885        -1.012941
 H         1.493682         1.438274         1.886454
 H         2.256427        -0.143934         2.006481
 H         4.890678         0.635569         1.325540
 H         2.154943         2.979369        -0.358575
 H         3.483283         2.340358        -1.401844
 H         1.384945         0.934527        -2.211232
 H         4.102414        -0.268785        -1.230461
