19
Iteration:   227
 C        -0.115817        -0.287329         0.156062
 C         1.330095        -0.042262         0.022279
 C         2.023952         0.747454         1.222764
 C         3.265611         1.128721         0.424451
 O         4.492980         1.384415         1.125498
 C         2.699954         2.143562        -0.578767
 C         1.983850         0.842797        -1.168897
 C         3.237542        -0.061974        -0.660021
 O         2.315490        -1.168430        -0.260976
 H        -0.472302        -0.651512         1.141115
 H        -0.703782         0.576008        -0.243661
 H        -0.355714        -1.310524        -0.457617
 H         1.441010         1.703426         1.436224
 H         2.135008         0.181950         2.167798
 H         4.696738         2.348558         0.784614
 H         2.106262         2.956186        -0.086214
 H         3.467448         2.572120        -1.269493
 H         1.461512         0.763283        -2.076103
 H         4.146082        -0.506238        -1.050768
