19
Iteration:  3171charge 0 multiplicity 1
 C        -0.047736        -0.396127         0.236646
 C         1.437106        -0.094214         0.078871
 C         2.066042         0.626692         1.229253
 C         3.315316         1.148660         0.401709
 O         4.518933         1.479487         0.973809
 C         2.529400         2.169032        -0.469168
 C         1.888427         0.812805        -1.076082
 C         3.193206         0.070766        -0.797219
 O         2.392047        -1.144049        -0.296194
 H        -0.366178        -0.670044         1.339351
 H        -0.705499         0.406834        -0.130035
 H        -0.503820        -1.099689        -0.625985
 H         1.542047         1.481614         1.520298
 H         2.398231         0.144467         2.119503
 H         4.312345         2.110387         1.679518
 H         1.867753         2.838188         0.119676
 H         2.996216         2.694182        -1.310608
 H         1.399929         0.556575        -1.987523
 H         3.871529        -0.136319        -1.629528
