19
Iteration:  4198charge 0 multiplicity 1
 C        -0.028570        -0.591153         0.216763
 C         1.338966         0.021066         0.129397
 C         2.019808         0.859770         1.229347
 C         3.267305         1.185870         0.363122
 O         4.495286         1.492926         1.008851
 C         2.637815         2.148805        -0.641146
 C         1.924567         0.846168        -1.072640
 C         3.160407        -0.020889        -0.775744
 O         2.357792        -1.117462        -0.186194
 H         0.006718        -1.509931         0.773592
 H        -0.709884        -0.029056         0.860737
 H        -0.573234        -0.731532        -0.789457
 H         1.539810         1.728516         1.591345
 H         2.121755         0.114667         2.151343
 H         4.971093         0.603439         1.195323
 H         2.143819         3.064486        -0.371142
 H         3.447544         2.486977        -1.300978
 H         1.477435         0.906183        -2.056032
 H         4.038970        -0.277753        -1.416409
