19
Iteration:  1417
 C         0.026567        -0.419189         0.218131
 C         1.356092         0.057412         0.069873
 C         2.068729         0.721796         1.181162
 C         3.360285         1.165825         0.430788
 O         4.449658         1.531577         1.094658
 C         2.678151         2.118182        -0.590079
 C         1.963613         0.841162        -1.178707
 C         3.139926        -0.141839        -0.742782
 O         2.251941        -1.089738        -0.261072
 H        -0.077405        -1.341082         0.816982
 H        -0.706992         0.404627         0.652729
 H        -0.547974        -0.819910        -0.783477
 H         1.411338         1.533914         1.529848
 H         2.375491         0.069824         1.996633
 H         4.499981         1.058904         1.998076
 H         1.946170         2.790022        -0.001396
 H         3.269068         2.591090        -1.439334
 H         1.453049         0.710794        -2.175169
 H         3.991922        -0.429242        -1.406610
