19
Iteration:  2087charge 0 multiplicity 1
 C        -0.011244        -0.438289         0.274002
 C         1.392202         0.034738         0.003846
 C         2.077059         0.600643         1.262845
 C         3.294859         1.131462         0.394733
 O         4.399817         1.573807         1.109158
 C         2.604444         2.103650        -0.685527
 C         1.982290         0.856424        -1.178450
 C         3.180861        -0.015401        -0.768096
 O         2.312151        -1.053144        -0.212412
 H        -0.071685        -1.305797         0.945371
 H        -0.513563         0.271767         0.815172
 H        -0.459526        -0.613135        -0.686165
 H         1.625652         1.545024         1.662699
 H         2.249095        -0.211951         1.819557
 H         4.654341         0.688850         1.630813
 H         1.950292         2.797271        -0.189169
 H         3.374217         2.631272        -1.248587
 H         1.428468         0.708741        -2.157342
 H         4.081357        -0.358751        -1.393369
