19
Iteration:  3891charge 0 multiplicity 1
 C        -0.044790        -0.681137         0.178566
 C         1.353183         0.005883         0.079255
 C         2.039131         0.809171         1.332635
 C         3.256251         1.204587         0.406074
 O         4.518766         1.341821         0.920486
 C         2.642692         2.155353        -0.634403
 C         1.936432         0.873778        -1.127414
 C         3.105049         0.075920        -0.642772
 O         2.347467        -1.035710        -0.171596
 H         0.043950        -1.685102         0.492284
 H        -0.599611        -0.168088         0.955257
 H        -0.340676        -0.542659        -0.893723
 H         1.568979         1.509588         1.848988
 H         2.367980        -0.014549         2.061163
 H         4.660937         2.273763         0.863266
 H         2.045114         3.034930        -0.366090
 H         3.489246         2.424842        -1.276593
 H         1.450396         0.806638        -2.127557
 H         3.954387        -0.110030        -1.449863
