19
Iteration:  2109charge 0 multiplicity 1
 C        -0.092858        -0.485255         0.191875
 C         1.337972         0.024198         0.080873
 C         2.082538         0.647162         1.292882
 C         3.258193         1.192113         0.416697
 O         4.442160         1.536074         1.040365
 C         2.642487         2.116017        -0.628529
 C         2.006262         0.836846        -1.151569
 C         3.143709         0.063304        -0.715728
 O         2.348695        -1.116435        -0.254610
 H        -0.301915        -1.056645         1.100284
 H        -0.730070         0.289336         0.367312
 H        -0.352483        -1.083595        -0.657585
 H         1.640852         1.503539         1.881810
 H         2.543283        -0.123831         1.753301
 H         4.884151         0.797569         1.317807
 H         2.127485         2.995226        -0.292525
 H         3.382625         2.382624        -1.387909
 H         1.443240         0.877948        -2.114729
 H         4.123367        -0.268998        -1.189368
