19
Iteration:  3434
 C        -0.025931        -0.610778         0.187940
 C         1.335720        -0.007030         0.104400
 C         2.138552         0.700031         1.341382
 C         3.222157         1.204004         0.445338
 O         4.502464         1.339132         0.965174
 C         2.596499         2.190356        -0.682874
 C         1.946299         0.908739        -1.126118
 C         3.130969         0.038525        -0.718272
 O         2.355403        -1.000967        -0.210917
 H         0.240217        -1.586702         0.710262
 H        -0.748362         0.024172         0.591395
 H        -0.544038        -0.873629        -0.767299
 H         1.381732         1.405137         1.976649
 H         2.572103        -0.148195         1.984799
 H         4.449005         2.227142         1.426202
 H         1.867983         3.032293        -0.625324
 H         3.317560         2.415376        -1.498433
 H         1.484750         0.985100        -2.038130
 H         4.081492        -0.225322        -1.259817
