19
Iteration:  4991charge 0 multiplicity 1
 C         0.024881        -0.604598         0.258425
 C         1.417863         0.017067         0.117568
 C         2.100679         0.761892         1.245883
 C         3.246866         1.095438         0.401824
 O         4.484067         1.390675         1.058151
 C         2.536600         2.157818        -0.585907
 C         1.848956         0.931301        -1.098006
 C         3.082701         0.063133        -0.796775
 O         2.399661        -1.009765        -0.259536
 H        -0.636216         0.078303         0.768110
 H        -0.523178        -0.856143        -0.644971
 H         0.042475        -1.645050         0.761291
 H         1.753647         1.721567         1.734089
 H         2.474028         0.014303         2.016808
 H         5.074585         0.948456         0.407140
 H         2.101024         3.184402        -0.381027
 H         3.277589         2.475576        -1.318205
 H         1.144191         0.892780        -1.987115
 H         4.005220        -0.215968        -1.455270
