19
Iteration:  2460
 C        -0.081265        -0.527767         0.209661
 C         1.327134         0.003540         0.079256
 C         2.058037         0.677270         1.339217
 C         3.271300         1.166904         0.401470
 O         4.469280         1.520167         1.010031
 C         2.673938         2.146620        -0.644729
 C         1.961419         0.885585        -1.191837
 C         3.127199         0.009450        -0.721079
 O         2.354026        -1.053896        -0.218451
 H         0.133627        -1.598297         0.591589
 H        -0.681116        -0.116073         0.997420
 H        -0.527582        -0.761617        -0.785885
 H         1.396242         1.504118         1.794486
 H         2.442319        -0.066356         2.087940
 H         4.988742         0.678185         1.284106
 H         2.135078         3.019427        -0.196909
 H         3.364444         2.612716        -1.368648
 H         1.426506         0.887193        -2.182567
 H         4.050249        -0.195701        -1.362333
