19
Iteration:  2059
 C        -0.110009        -0.472620         0.253497
 C         1.379639        -0.055923         0.035577
 C         2.058269         0.783482         1.227623
 C         3.303644         1.176205         0.417912
 O         4.489926         1.564697         1.046556
 C         2.652276         2.127415        -0.602075
 C         1.931515         0.831658        -1.094284
 C         3.147746        -0.024636        -0.754215
 O         2.390891        -1.180930        -0.323993
 H        -0.359278        -1.502496         0.606488
 H        -0.630163         0.248832         1.024277
 H        -0.605089        -0.438909        -0.776704
 H         1.522902         1.685503         1.311233
 H         2.191902         0.107543         2.252993
 H         4.347538         1.165305         2.007098
 H         2.138001         2.933467        -0.023730
 H         3.442026         2.626166        -1.172314
 H         1.481641         0.651207        -2.049371
 H         3.984450        -0.250818        -1.369135
