19
Iteration:   198
 C        -0.126519        -0.315030        -0.069286
 C         1.279163         0.046654         0.039814
 C         2.074953         0.688977         1.379540
 C         3.246428         1.173772         0.443993
 O         4.545911         1.341015         1.006706
 C         2.696235         2.086671        -0.608317
 C         1.950216         0.763081        -1.137341
 C         3.162076         0.055932        -0.658347
 O         2.335191        -1.095418        -0.092493
 H        -0.416616        -0.796422         0.819451
 H        -0.709334         0.622265        -0.173772
 H        -0.177263        -1.030360        -0.897801
 H         1.641125         1.409787         2.006959
 H         2.334418        -0.162230         1.925189
 H         4.709287         2.277893         1.162183
 H         2.109175         2.922047        -0.220153
 H         3.492236         2.364476        -1.290682
 H         1.554824         0.424166        -2.124927
 H         3.931134        -0.215041        -1.317879
