19
Iteration:  3620charge 0 multiplicity 1
 C        -0.033178        -0.422740         0.168169
 C         1.393997        -0.070118         0.111671
 C         2.062298         0.742107         1.277209
 C         3.297599         1.109741         0.423297
 O         4.501090         1.505055         1.059913
 C         2.463503         2.169125        -0.598410
 C         1.939082         0.808146        -1.083827
 C         3.153923         0.030435        -0.785434
 O         2.387393        -1.159805        -0.206070
 H        -0.284780        -0.914281         1.249092
 H        -0.398046         0.484918        -0.343365
 H        -0.227732        -1.203600        -0.715353
 H         1.612731         1.743743         1.500867
 H         2.224852         0.231596         2.121265
 H         5.291588         1.626769         0.400566
 H         1.894055         2.921166         0.004591
 H         3.055456         2.666775        -1.429024
 H         1.275722         0.618940        -1.930834
 H         3.971451        -0.352117        -1.472090
