19
Iteration:  3702charge 0 multiplicity 1
 C        -0.037380        -0.526857         0.256846
 C         1.394759        -0.017386         0.044373
 C         2.013567         0.793922         1.234401
 C         3.321045         1.139784         0.368383
 O         4.494856         1.447121         1.092516
 C         2.614685         2.145386        -0.683100
 C         1.909427         0.837196        -1.124120
 C         3.158835        -0.009172        -0.723340
 O         2.349347        -1.107488        -0.219031
 H         0.081708        -1.563784         0.646247
 H        -0.559711        -0.059212         1.127715
 H        -0.565443        -0.577458        -0.624794
 H         1.430869         1.658871         1.329466
 H         2.238610         0.406447         2.319532
 H         4.696985         2.328572         0.949809
 H         1.985799         2.864211        -0.154415
 H         3.264809         2.641665        -1.385515
 H         1.436724         0.637412        -2.090012
 H         3.943468        -0.378109        -1.385022
