19
Iteration:  4542
 C        -0.110283        -0.604668         0.225564
 C         1.299197         0.037059         0.107299
 C         2.155283         0.644780         1.313912
 C         3.260693         1.155570         0.412375
 O         4.499350         1.554932         0.952269
 C         2.676665         2.195214        -0.591768
 C         1.935941         0.949931        -1.080894
 C         3.148514         0.005125        -0.778137
 O         2.316918        -1.100485        -0.279577
 H        -0.874075         0.143371         0.129227
 H        -0.280737        -1.459352        -0.426958
 H        -0.279998        -0.830578         1.321519
 H         1.574682         1.431166         1.833598
 H         2.230843        -0.193994         1.913818
 H         5.108709         0.830013         1.295426
 H         2.067223         3.095042        -0.389747
 H         3.596228         2.452822        -1.082615
 H         1.378954         0.792800        -2.034255
 H         3.981783        -0.365116        -1.438920
