19
Iteration:  4603charge 0 multiplicity 1
 C        -0.092702        -0.360875         0.238046
 C         1.422147         0.002735         0.117908
 C         2.173838         0.568108         1.259896
 C         3.278666         1.175384         0.394889
 O         4.527931         1.490407         0.953628
 C         2.475001         2.087208        -0.634033
 C         1.875571         0.801237        -1.162671
 C         3.200374         0.081852        -0.725062
 O         2.368532        -1.095009        -0.219210
 H        -0.617621         0.398244         0.936918
 H        -0.655443        -0.284696        -0.732726
 H        -0.210529        -1.348292         0.552285
 H         1.661457         1.301099         1.898835
 H         2.486115        -0.351140         1.894786
 H         4.329532         1.428590         1.877965
 H         1.779876         2.737691        -0.074476
 H         3.337405         2.554678        -1.201614
 H         1.427255         0.780806        -2.237254
 H         4.087239        -0.057453        -1.350893
