19
Iteration:   869
 C        -0.104705        -0.468017         0.104545
 C         1.330658        -0.006013         0.018469
 C         2.058763         0.767122         1.348099
 C         3.233522         1.136911         0.420418
 O         4.522145         1.421657         1.007217
 C         2.744072         2.114834        -0.695874
 C         1.948900         0.857343        -1.237699
 C         3.177676        -0.010205        -0.614749
 O         2.286789        -1.093110        -0.133280
 H        -0.093193        -1.377843         0.885289
 H        -0.629739         0.349380         0.598104
 H        -0.656080        -0.569963        -0.882682
 H         1.440836         1.627996         1.655641
 H         2.129696        -0.077069         2.065983
 H         4.474903         1.990752         1.804513
 H         2.404090         3.067069        -0.236783
 H         3.591372         2.456850        -1.294344
 H         1.559734         0.653521        -2.295783
 H         4.125840        -0.332859        -1.213816
