19
Iteration:  4256
 C        -0.065329        -0.373678         0.250446
 C         1.390406        -0.088577         0.145348
 C         2.072857         0.630404         1.292995
 C         3.226047         1.190027         0.354259
 O         4.465707         1.590633         0.965956
 C         2.596350         2.149090        -0.656783
 C         1.969078         0.788596        -1.207521
 C         3.174696        -0.006793        -0.715949
 O         2.354159        -1.111286        -0.214180
 H        -0.218382        -1.437299         0.599160
 H        -0.447668         0.385980         0.970472
 H        -0.569807        -0.371703        -0.675253
 H         1.428145         1.439481         1.807429
 H         2.480229        -0.130253         2.031077
 H         4.724000         0.960498         1.652321
 H         1.964073         2.883940        -0.173952
 H         3.504300         2.482588        -1.155586
 H         1.510398         0.602627        -2.289950
 H         4.093935        -0.195510        -1.165506
