19
Iteration:   909charge 0 multiplicity 1
 C        -0.079227        -0.505209         0.024690
 C         1.364680         0.016172         0.067735
 C         2.047919         0.846691         1.272529
 C         3.322273         1.186598         0.375490
 O         4.561034         1.259177         1.010437
 C         2.615989         2.242090        -0.665014
 C         1.957767         0.808671        -1.146727
 C         3.150883        -0.020200        -0.626973
 O         2.288740        -1.095672        -0.060549
 H        -0.215133        -1.490267         0.501569
 H        -0.809843         0.251245         0.329814
 H        -0.294951        -0.582283        -1.004889
 H         1.602952         1.821329         1.648054
 H         2.279529         0.252406         2.121855
 H         4.417755         2.034648         1.612662
 H         1.994893         2.990752        -0.121078
 H         3.249636         2.516222        -1.535607
 H         1.502007         0.676584        -2.099651
 H         4.074826        -0.241767        -1.077940
