19
Iteration:  1526
 C        -0.097053        -0.435349         0.228492
 C         1.379461        -0.046117         0.029594
 C         2.054527         0.647779         1.217966
 C         3.270285         1.135977         0.435191
 O         4.420425         1.532584         1.102790
 C         2.765289         2.104355        -0.685304
 C         1.933363         0.875378        -1.116583
 C         3.111046         0.043683        -0.725375
 O         2.342155        -1.067277        -0.252420
 H        -0.190473        -0.556404         1.259201
 H        -0.716084         0.474282         0.129186
 H        -0.104342        -1.370966        -0.411293
 H         1.488456         1.442270         1.929940
 H         2.439787        -0.175543         1.905765
 H         4.836759         0.677384         1.533402
 H         2.060501         2.947432        -0.381793
 H         3.567912         2.321630        -1.459211
 H         1.407737         0.790937        -2.105072
 H         3.958965        -0.144369        -1.425760
