19
Iteration:  1886charge 0 multiplicity 1
 C        -0.061366        -0.458746         0.137554
 C         1.313442         0.022517         0.139667
 C         2.058400         0.610590         1.239223
 C         3.271640         1.157929         0.423314
 O         4.520642         1.465314         0.974667
 C         2.602500         2.172004        -0.665523
 C         1.916122         0.855468        -1.114114
 C         3.153393         0.022492        -0.722969
 O         2.413407        -1.059940        -0.159014
 H        -0.164311        -1.363012         0.739620
 H        -0.808830         0.403063         0.332488
 H        -0.335590        -0.736821        -0.903919
 H         1.579026         1.465348         2.011953
 H         2.213417        -0.207990         1.934896
 H         4.588355         1.246703         1.849402
 H         1.990231         3.077718        -0.492201
 H         3.452934         2.315087        -1.352680
 H         1.413120         0.597917        -2.007452
 H         4.038863        -0.113871        -1.220255
