19
Iteration:   462
 C        -0.026602        -0.468993        -0.015022
 C         1.327400         0.007292         0.141947
 C         1.984846         0.798537         1.241799
 C         3.336637         1.164742         0.391454
 O         4.604621         1.341733         1.052438
 C         2.649870         2.137244        -0.633962
 C         1.927460         0.891422        -1.077438
 C         3.132458        -0.028555        -0.670533
 O         2.271015        -1.094944        -0.155791
 H        -0.263845        -1.260518         0.802358
 H        -0.657630         0.465454         0.058032
 H        -0.071870        -0.990917        -0.925218
 H         1.554480         1.715757         1.548165
 H         2.131874         0.180356         2.139693
 H         4.562509         1.746792         1.870061
 H         2.098625         2.988114        -0.232742
 H         3.202199         2.638466        -1.425776
 H         1.457981         0.753532        -2.201644
 H         3.951370        -0.458803        -1.324780
