19
Iteration:   364
 C        -0.128006        -0.360147         0.053819
 C         1.390008         0.025519         0.020022
 C         2.043706         0.701744         1.260518
 C         3.296247         1.158567         0.436030
 O         4.463275         1.551733         1.043978
 C         2.752409         2.103947        -0.585917
 C         1.962516         0.869808        -1.070147
 C         3.091603        -0.046700        -0.724021
 O         2.340791        -1.203321        -0.151569
 H        -0.424321        -1.194994         0.789255
 H        -0.709983         0.582415         0.242744
 H        -0.328468        -0.804553        -0.876543
 H         1.425796         1.481405         1.591837
 H         2.283034        -0.027283         2.056054
 H         4.769362         0.920118         1.658544
 H         2.294403         3.060766        -0.288797
 H         3.556272         2.252777        -1.332140
 H         1.435083         0.795900        -2.134271
 H         3.890020        -0.318108        -1.474965
