19
Iteration:  3956
 C        -0.053430        -0.386138         0.292252
 C         1.394119        -0.007506         0.063341
 C         2.111645         0.612393         1.290718
 C         3.222611         1.203820         0.373392
 O         4.454150         1.518529         0.981781
 C         2.555019         2.096039        -0.686215
 C         1.950172         0.830460        -1.153063
 C         3.219913         0.003887        -0.675653
 O         2.401674        -1.103235        -0.229251
 H        -0.414111        -1.395029         0.426234
 H        -0.565012         0.057519         1.182659
 H        -0.642306        -0.126815        -0.671744
 H         1.511071         1.289598         1.911096
 H         2.529058        -0.411972         1.745451
 H         4.264317         1.810621         1.984356
 H         1.885582         2.956870        -0.513529
 H         3.253190         2.317160        -1.504877
 H         1.449805         0.660568        -2.133338
 H         4.198532        -0.282688        -1.338258
