19
Iteration:  3566charge 0 multiplicity 1
 C         0.024762        -0.622484         0.233602
 C         1.310715         0.024235         0.141574
 C         2.052444         0.684600         1.237438
 C         3.273863         1.208103         0.407231
 O         4.525089         1.502279         0.987335
 C         2.640602         2.136306        -0.630910
 C         1.967088         0.887994        -1.149411
 C         3.086943         0.040982        -0.723768
 O         2.317772        -1.040678        -0.260991
 H        -0.217347        -0.722926         1.357285
 H        -0.820897         0.027757         0.026118
 H         0.008302        -1.542196        -0.431741
 H         1.427261         1.529735         1.654332
 H         2.369799         0.056491         2.002320
 H         4.659826         0.737100         1.662642
 H         1.992959         2.937403        -0.204578
 H         3.413579         2.505361        -1.362868
 H         1.366480         0.777020        -2.059257
 H         3.995858        -0.245774        -1.271414
