19
Iteration:  4770
 C        -0.055266        -0.367517         0.221729
 C         1.367714        -0.064312         0.072794
 C         2.148874         0.615326         1.304681
 C         3.337134         1.151395         0.386481
 O         4.520928         1.534014         1.032672
 C         2.620379         2.089336        -0.589881
 C         1.876466         0.825107        -1.088915
 C         3.120429         0.046959        -0.775017
 O         2.299611        -1.161570        -0.275364
 H        -0.571815         0.514644         0.609028
 H        -0.549557        -0.804152        -0.657834
 H        -0.086026        -1.006115         1.056961
 H         1.556298         1.292849         1.999430
 H         2.486168        -0.166914         1.938085
 H         4.507948         2.449697         1.024740
 H         1.901053         2.829396        -0.224544
 H         3.219697         2.440322        -1.405157
 H         1.525930         0.708779        -2.071890
 H         3.853662        -0.027316        -1.579543
