19
Iteration:  1272
 C        -0.063867        -0.401972         0.249758
 C         1.318020         0.073866         0.034863
 C         2.085464         0.759908         1.157305
 C         3.354592         1.088975         0.363489
 O         4.436435         1.556384         1.180433
 C         2.680250         2.110218        -0.603200
 C         1.970725         0.837540        -1.214422
 C         3.159655        -0.144193        -0.750456
 O         2.306482        -1.109382        -0.252888
 H        -0.286200        -1.399113         0.855396
 H        -0.600257         0.342648         0.825804
 H        -0.592832        -0.642897        -0.700210
 H         1.579788         1.665061         1.598905
 H         2.308061         0.076867         1.850601
 H         4.666280         0.965661         1.849599
 H         2.046438         2.878064        -0.115529
 H         3.358754         2.666065        -1.248485
 H         1.537473         0.757734        -2.184252
 H         3.996147        -0.596628        -1.235081
