19
Iteration:  3894
 C        -0.052038        -0.681580         0.185687
 C         1.349730         0.009220         0.065187
 C         2.067429         0.785896         1.305889
 C         3.260890         1.196644         0.402902
 O         4.529107         1.348778         0.930909
 C         2.656919         2.150581        -0.623823
 C         1.920318         0.883405        -1.127375
 C         3.107166         0.065261        -0.646828
 O         2.348077        -1.043292        -0.168224
 H         0.088294        -1.761634         0.442785
 H        -0.584928        -0.115613         0.919621
 H        -0.442539        -0.509409        -0.863874
 H         1.468243         1.659495         1.880710
 H         2.233767         0.079004         2.089308
 H         4.662373         2.397048         0.872153
 H         2.009525         2.990453        -0.359774
 H         3.477682         2.535473        -1.289192
 H         1.371573         0.731576        -2.084542
 H         3.915162        -0.060493        -1.357953
