19
Iteration:  4009
 C        -0.024650        -0.543791         0.140657
 C         1.375669        -0.003745         0.107242
 C         2.084420         0.716842         1.287062
 C         3.262865         1.133297         0.368263
 O         4.494889         1.591011         0.999322
 C         2.655913         2.142570        -0.615729
 C         1.935671         0.827592        -1.146784
 C         3.086095         0.006415        -0.705836
 O         2.299110        -1.063223        -0.180204
 H         0.032074        -1.222565         0.978347
 H        -0.807592         0.096436         0.611284
 H        -0.297693        -1.094317        -0.769746
 H         1.480580         1.606069         1.708904
 H         2.428992         0.068098         2.198703
 H         5.108449         0.765184         1.143054
 H         2.034543         2.973910        -0.224863
 H         3.443918         2.520709        -1.278394
 H         1.390798         0.581026        -2.085421
 H         3.924215        -0.325282        -1.417906
