19
Iteration:  3558charge 0 multiplicity 1
 C         0.008181        -0.597544         0.268312
 C         1.367423        -0.004331         0.019605
 C         2.047779         0.789020         1.218030
 C         3.284263         1.153344         0.417520
 O         4.523944         1.521303         1.003947
 C         2.646384         2.117912        -0.579980
 C         1.877238         0.888496        -1.107522
 C         3.141901        -0.024724        -0.774670
 O         2.319058        -1.046145        -0.270890
 H        -0.155610        -1.053096         1.253463
 H        -0.822594         0.097212         0.007771
 H        -0.089012        -1.476533        -0.297802
 H         1.504948         1.663414         1.705195
 H         2.319289         0.009715         2.164901
 H         4.615021         1.004475         1.865584
 H         2.134239         2.981751        -0.154472
 H         3.318393         2.543156        -1.341235
 H         1.134730         0.818027        -2.009166
 H         4.034553        -0.295746        -1.279019
