19
Iteration:  1429charge 0 multiplicity 1
 C        -0.069069        -0.440784         0.174794
 C         1.393454         0.039579         0.044885
 C         2.128736         0.705155         1.267998
 C         3.264854         1.123192         0.362839
 O         4.488054         1.509519         1.088797
 C         2.635784         2.079682        -0.683468
 C         1.999774         0.851233        -1.167224
 C         3.183076        -0.000920        -0.713868
 O         2.223823        -1.090270        -0.194019
 H         0.054741        -1.377231         0.746128
 H        -0.778893         0.303335         0.804521
 H        -0.374552        -0.545669        -0.991586
 H         1.650639         1.442498         1.841995
 H         2.377444        -0.174403         1.904431
 H         4.411416         1.085733         2.003402
 H         1.956581         2.918022        -0.238461
 H         3.325894         2.696688        -1.360143
 H         1.392374         0.856285        -2.118593
 H         4.112136        -0.442062        -1.154174
