19
Iteration:   947charge 0 multiplicity 1
 C        -0.047100        -0.388567         0.197558
 C         1.328842         0.001521         0.056132
 C         1.945566         0.736287         1.235950
 C         3.259455         1.074905         0.395389
 O         4.490948         1.392355         1.033785
 C         2.739592         2.170436        -0.642441
 C         1.985823         0.849737        -1.147870
 C         3.208124         0.026642        -0.683290
 O         2.329568        -1.134092        -0.194074
 H        -0.345828        -0.934693         1.107931
 H        -0.655327         0.540362         0.318311
 H        -0.299276        -1.164243        -0.625633
 H         1.425974         1.552296         1.622294
 H         2.098562        -0.083353         1.987447
 H         4.305693         2.225439         1.643704
 H         2.227518         3.114750        -0.439616
 H         3.365655         2.471589        -1.482052
 H         1.526123         0.618236        -2.141306
 H         4.140152        -0.378115        -1.174590
