19
Iteration:   650
 C        -0.091712        -0.400896         0.065435
 C         1.355126        -0.006474         0.112955
 C         2.082892         0.709229         1.289746
 C         3.257659         1.193107         0.445626
 O         4.513441         1.398968         1.047874
 C         2.731721         2.075970        -0.686138
 C         1.954082         0.800399        -1.160610
 C         3.127635        -0.002336        -0.673622
 O         2.316862        -1.058591        -0.188103
 H        -0.507517        -0.990445         0.829258
 H        -0.682233         0.471502         0.039769
 H        -0.391842        -0.928104        -0.901806
 H         1.576950         1.639206         1.796583
 H         2.409872         0.046208         2.117302
 H         4.393288         1.853347         1.875548
 H         2.046495         2.852052        -0.438941
 H         3.540304         2.442085        -1.294971
 H         1.318045         0.734699        -2.021483
 H         3.965065        -0.246713        -1.288269
