19
Iteration:  1622
 C        -0.069691        -0.444874         0.063374
 C         1.356558        -0.045840         0.080225
 C         2.057789         0.744634         1.174159
 C         3.379005         1.114223         0.463634
 O         4.543064         1.551367         1.012180
 C         2.622687         2.122297        -0.566366
 C         1.864304         0.857211        -1.052185
 C         3.108274        -0.055351        -0.695565
 O         2.332308        -1.118298        -0.221589
 H        -0.131669        -1.369288         0.758780
 H        -0.556969         0.379661         0.599288
 H        -0.345974        -0.670388        -1.044966
 H         1.520903         1.739047         1.504023
 H         2.252859         0.367407         2.129703
 H         4.750738         0.959650         1.848566
 H         1.979921         2.932116        -0.098751
 H         3.373754         2.483598        -1.329396
 H         1.293326         0.842987        -2.065634
 H         3.989641        -0.348364        -1.370915
