19
Iteration:    56charge 0 multiplicity 1
 C        -0.130219        -0.295129        -0.036702
 C         1.391339         0.071525         0.023254
 C         1.974651         0.703509         1.371830
 C         3.282869         1.097916         0.466128
 O         4.486222         1.337356         1.014837
 C         2.701331         2.112616        -0.675778
 C         1.982612         0.819503        -1.165287
 C         3.172061        -0.064969        -0.643600
 O         2.340656        -1.077052        -0.058963
 H        -0.397067        -0.687422         0.932251
 H        -0.774943         0.595272        -0.090032
 H        -0.368995        -0.946776        -0.804763
 H         1.488982         1.483359         1.948409
 H         2.194130        -0.121043         2.043715
 H         4.804004         2.229727         0.747517
 H         2.201301         3.046880        -0.454097
 H         3.493661         2.261133        -1.386062
 H         1.495490         0.807710        -2.146551
 H         4.095756        -0.429294        -0.964798
