19
Iteration:  4752charge 0 multiplicity 1
 C        -0.120318        -0.416634         0.217771
 C         1.379562         0.023980         0.129285
 C         2.219868         0.544210         1.287884
 C         3.253205         1.135112         0.402659
 O         4.524959         1.578046         0.954585
 C         2.582624         2.138551        -0.582061
 C         1.916204         0.870786        -1.081151
 C         3.135367        -0.109035        -0.748040
 O         2.311629        -1.093634        -0.310456
 H        -0.815292         0.415417         0.240913
 H        -0.074776        -0.923755        -0.721568
 H        -0.474450        -0.972970         1.184762
 H         1.740508         1.276969         1.899180
 H         2.428184        -0.308353         1.976269
 H         4.501788         2.467415         1.182419
 H         2.060113         3.032586        -0.148925
 H         3.461799         2.438248        -1.193584
 H         1.217050         0.856177        -1.943638
 H         4.130189        -0.525151        -1.115782
