19
Iteration:  1986
 C        -0.040183        -0.507841         0.151807
 C         1.377684        -0.016937         0.074764
 C         2.020151         0.781318         1.221103
 C         3.295629         1.171512         0.487428
 O         4.570958         1.508028         1.024104
 C         2.611865         2.081631        -0.540416
 C         1.847426         0.806947        -1.114409
 C         3.145765         0.024489        -0.753374
 O         2.391499        -1.104444        -0.256610
 H        -0.331924        -1.061636         1.043015
 H        -0.578757         0.470510         0.017121
 H        -0.406403        -1.167071        -0.614708
 H         1.328178         1.742647         1.598396
 H         2.097608         0.207793         2.107647
 H         4.817380         0.770427         1.560227
 H         2.085329         3.024646        -0.334477
 H         3.241944         2.497323        -1.343694
 H         1.254027         0.852730        -1.996962
 H         3.958792        -0.134637        -1.449754
