19
Iteration:  3340
 C        -0.051865        -0.436621         0.175126
 C         1.368908        -0.018412         0.109009
 C         2.152865         0.609101         1.334207
 C         3.317939         1.128368         0.399508
 O         4.547521         1.598877         0.986182
 C         2.537589         2.122008        -0.546579
 C         1.869037         0.882762        -1.154161
 C         3.099854         0.008752        -0.799209
 O         2.371513        -1.109269        -0.247634
 H        -0.399492        -0.930110         1.106923
 H        -0.901360         0.224450        -0.304447
 H        -0.266362        -1.297293        -0.522869
 H         1.724780         1.324789         1.877163
 H         2.480481        -0.228789         1.983152
 H         4.535142         1.372651         1.909520
 H         1.928478         2.944068        -0.101980
 H         3.204630         2.563729        -1.321893
 H         1.356264         0.674324        -2.214431
 H         4.064009        -0.272428        -1.257581
