19
Iteration:  3302
 C        -0.068517        -0.446529         0.230713
 C         1.397679        -0.040334         0.094319
 C         2.082792         0.677160         1.267211
 C         3.252023         1.112012         0.430124
 O         4.482272         1.573501         0.998013
 C         2.580307         2.121815        -0.598063
 C         1.888825         0.864995        -1.149242
 C         3.120996         0.025069        -0.736218
 O         2.404910        -1.116580        -0.273930
 H        -0.160578        -1.342489         0.900235
 H        -0.500197         0.375276         0.646768
 H        -0.237771        -0.910072        -0.755026
 H         1.389594         1.550561         1.750801
 H         2.351840        -0.069156         2.035136
 H         5.057023         0.894013         1.218983
 H         2.089541         2.931004        -0.036853
 H         3.187547         2.671321        -1.317242
 H         1.459133         0.771673        -2.073279
 H         4.075305        -0.195123        -1.235914
