19
Iteration:  3258charge 0 multiplicity 1
 C         0.018858        -0.597224         0.260765
 C         1.362021         0.006337         0.109684
 C         2.038327         0.758447         1.234403
 C         3.296580         1.187446         0.327966
 O         4.478584         1.483713         1.047034
 C         2.641574         2.133318        -0.605650
 C         1.905353         0.908415        -1.156749
 C         3.098705         0.016857        -0.714355
 O         2.360917        -1.082386        -0.249862
 H        -0.077956        -1.646246         0.693442
 H        -0.484788         0.009635         0.969579
 H        -0.369837        -0.552918        -0.834559
 H         1.474052         1.703941         1.688493
 H         2.288114         0.136717         2.058587
 H         4.899479         0.714104         1.277025
 H         1.886892         2.843043        -0.197662
 H         3.276738         2.691130        -1.290852
 H         1.369107         0.657035        -2.004358
 H         3.927743        -0.181513        -1.399849
