19
Iteration:   537
 C        -0.122089        -0.356827         0.212483
 C         1.350063         0.050835         0.035229
 C         2.017958         0.764621         1.208498
 C         3.325245         1.119522         0.384784
 O         4.464467         1.416777         1.200434
 C         2.692449         2.072847        -0.639569
 C         2.056562         0.810164        -1.169759
 C         3.184159        -0.077369        -0.709703
 O         2.310978        -1.136783        -0.268655
 H        -0.101031        -1.357650         0.779027
 H        -0.684271         0.478013         0.728544
 H        -0.556131        -0.380115        -0.736637
 H         1.308972         1.674428         1.636753
 H         2.289713         0.024683         2.036983
 H         4.355042         2.440089         1.309877
 H         2.031217         2.866241        -0.222104
 H         3.242838         2.579724        -1.451245
 H         1.630489         0.671420        -2.223391
 H         3.986357        -0.340797        -1.436680
