19
Iteration:  3740charge 0 multiplicity 1
 C        -0.024868        -0.545234         0.160006
 C         1.355370         0.007183         0.143341
 C         2.094613         0.696723         1.327622
 C         3.220385         1.216255         0.397984
 O         4.451327         1.347795         1.016604
 C         2.603253         2.191314        -0.727054
 C         1.924535         0.832252        -1.170851
 C         3.131908         0.055433        -0.658450
 O         2.400519        -1.034350        -0.120959
 H         0.157180        -1.403570         0.780482
 H        -0.710640         0.246088         0.381295
 H        -0.379850        -1.089371        -0.790846
 H         1.552486         1.684844         1.704214
 H         2.376760         0.000825         2.114640
 H         5.048620         1.787566         0.394404
 H         2.079694         3.030389        -0.226587
 H         3.202648         2.599178        -1.581913
 H         1.439286         0.591189        -2.145209
 H         3.897361        -0.157821        -1.430750
