19
Iteration:  1270
 C        -0.066214        -0.411927         0.265382
 C         1.323588         0.053939         0.023900
 C         2.076431         0.774324         1.142104
 C         3.363567         1.072895         0.372152
 O         4.435751         1.557836         1.185114
 C         2.672906         2.135054        -0.592513
 C         1.984560         0.828147        -1.218168
 C         3.160062        -0.137080        -0.766383
 O         2.305024        -1.112917        -0.247183
 H        -0.305250        -1.329063         0.853143
 H        -0.584101         0.329030         0.798276
 H        -0.558023        -0.547779        -0.631774
 H         1.565402         1.659490         1.596264
 H         2.246886         0.063075         1.905848
 H         4.671696         0.961642         1.864200
 H         2.088282         2.917099        -0.180935
 H         3.346213         2.662770        -1.237457
 H         1.437752         0.787867        -2.224416
 H         4.018924        -0.650478        -1.281790
