19
Iteration:  3038charge 0 multiplicity 1
 C        -0.050917        -0.488378         0.278784
 C         1.414335         0.029249         0.062720
 C         2.088469         0.664245         1.249418
 C         3.322760         1.160801         0.402305
 O         4.536351         1.452103         1.016957
 C         2.487894         2.159270        -0.586682
 C         1.918828         0.886524        -1.166433
 C         3.202905        -0.030631        -0.792135
 O         2.351954        -1.061728        -0.242644
 H        -0.065047        -1.549679         0.745514
 H        -0.692440         0.267254         0.783538
 H        -0.565127        -0.747087        -0.780124
 H         1.571687         1.484539         1.674082
 H         2.278559        -0.242373         1.935514
 H         4.318096         1.713579         1.957602
 H         1.743525         2.745315        -0.046339
 H         3.151252         2.650107        -1.294226
 H         1.339114         0.927996        -2.154554
 H         4.062920        -0.313417        -1.401926
