19
Iteration:  4551
 C        -0.047088        -0.527533         0.224954
 C         1.354389         0.013059         0.090589
 C         2.069169         0.638852         1.296253
 C         3.272436         1.126092         0.426858
 O         4.539308         1.569773         0.945627
 C         2.628160         2.130479        -0.575174
 C         1.895000         0.875092        -1.076167
 C         3.103261        -0.037000        -0.753900
 O         2.345073        -1.030950        -0.288430
 H        -0.791745         0.348102         0.033344
 H        -0.385997        -1.285026        -0.540352
 H        -0.181526        -1.009690         1.214885
 H         1.650505         1.471044         1.854348
 H         2.369492        -0.161848         1.958833
 H         5.018915         0.830168         1.451480
 H         2.188025         3.068609        -0.092719
 H         3.321139         2.502621        -1.404139
 H         1.281573         0.944737        -2.087963
 H         4.032648        -0.198000        -1.319294
