19
Iteration:  2195charge 0 multiplicity 1
 C        -0.078527        -0.451122         0.242948
 C         1.351186        -0.016014         0.057405
 C         2.109716         0.668996         1.236089
 C         3.286269         1.149835         0.429504
 O         4.449224         1.536514         1.034112
 C         2.613899         2.096387        -0.602350
 C         1.926740         0.864512        -1.118515
 C         3.165818        -0.007612        -0.741470
 O         2.398714        -1.080619        -0.317130
 H        -0.071796        -1.105343         1.151395
 H        -0.770255         0.498740         0.247244
 H        -0.450905        -1.108305        -0.564767
 H         1.472128         1.600760         1.687265
 H         2.307691         0.102474         2.178271
 H         4.597194         1.047641         1.929250
 H         2.111563         2.966343        -0.188117
 H         3.360832         2.421685        -1.353413
 H         1.334873         0.793560        -2.050172
 H         4.001276        -0.414559        -1.370784
