19
Iteration:  4158
 C        -0.079065        -0.454602         0.238442
 C         1.369514        -0.009609         0.069836
 C         2.042937         0.703542         1.254726
 C         3.277271         1.174882         0.346936
 O         4.520551         1.443170         0.963527
 C         2.519839         2.180945        -0.580951
 C         1.950931         0.859701        -1.181476
 C         3.209282         0.011328        -0.759870
 O         2.413429        -1.109953        -0.149587
 H        -0.215867        -0.897971         1.284904
 H        -0.703446         0.424032        -0.063970
 H        -0.382733        -1.161695        -0.445382
 H         1.648157         1.495611         1.954638
 H         2.421858         0.035477         1.999415
 H         4.441260         1.119806         1.869651
 H         1.829808         2.953884        -0.211248
 H         3.190269         2.501086        -1.401557
 H         1.309767         0.611487        -2.109791
 H         3.993361        -0.252346        -1.367664
