19
Iteration:     9
 C        -0.113632        -0.339774         0.028333
 C         1.341442         0.036518        -0.035576
 C         2.041784         0.810441         1.284941
 C         3.291981         1.143502         0.424181
 O         4.516550         1.451270         1.038501
 C         2.707206         2.117144        -0.696430
 C         1.998918         0.777415        -1.129807
 C         3.182312        -0.146124        -0.629942
 O         2.255419        -1.107791        -0.102745
 H        -0.287713        -0.766574         0.969658
 H        -0.680952         0.530381         0.185950
 H        -0.535872        -0.886509        -0.927983
 H         1.646153         1.764919         1.603359
 H         2.218863         0.293219         2.222719
 H         4.391541         0.973996         1.827442
 H         2.255008         2.967494        -0.131640
 H         3.627602         2.444766        -1.259533
 H         1.474714         0.813436        -2.073699
 H         4.096497        -0.669500        -1.149504
