19
Iteration:   407
 C        -0.065343        -0.340688         0.243501
 C         1.288408         0.072087        -0.005598
 C         2.073873         0.701948         1.190922
 C         3.258863         1.195257         0.457692
 O         4.455673         1.410338         1.170908
 C         2.670207         2.178207        -0.672812
 C         2.070847         0.770936        -1.208989
 C         3.182458        -0.050682        -0.729431
 O         2.291879        -1.130022        -0.293779
 H        -0.016003        -0.532304         1.406634
 H        -0.961924         0.367729         0.208124
 H        -0.153479        -1.307056        -0.134581
 H         1.592968         1.393633         1.737031
 H         2.383948        -0.139952         1.804348
 H         4.231870         1.362445         2.125383
 H         1.931926         2.923765        -0.369715
 H         3.498717         2.506675        -1.300234
 H         1.631348         0.672185        -2.324766
 H         4.104874        -0.303463        -1.307387
