19
Iteration:  4660
 C        -0.011396        -0.656341         0.273875
 C         1.355576         0.033262         0.066043
 C         2.079620         0.743213         1.294924
 C         3.327258         1.189102         0.353894
 O         4.553300         1.344695         1.002288
 C         2.624065         2.177748        -0.643419
 C         1.860112         0.926325        -1.101507
 C         3.113013        -0.005740        -0.778365
 O         2.308692        -0.994068        -0.249513
 H        -0.679316         0.027827         0.858193
 H        -0.422758        -1.083016        -0.649782
 H         0.106289        -1.363757         1.081061
 H         1.560510         1.661121         1.644972
 H         2.221903         0.043812         2.087762
 H         4.191678         1.756824         1.896984
 H         2.231011         3.118143        -0.177818
 H         3.303056         2.563660        -1.404460
 H         1.675832         0.870259        -2.221889
 H         3.801280        -0.343373        -1.562242
