19
Iteration:  4568charge 0 multiplicity 1
 C        -0.013979        -0.390650         0.185628
 C         1.412339        -0.059974         0.119448
 C         2.140584         0.673108         1.263182
 C         3.312551         1.148867         0.348045
 O         4.531615         1.521824         0.951866
 C         2.512221         2.075018        -0.508160
 C         1.846758         0.856221        -1.102714
 C         3.168628         0.105540        -0.788154
 O         2.336178        -1.154667        -0.215257
 H        -0.608796         0.489575         0.399561
 H        -0.328004        -0.797785        -0.777548
 H        -0.255936        -1.060746         0.994588
 H         1.427824         1.467318         1.532226
 H         2.196643        -0.083843         2.130454
 H         4.753502         0.970616         1.713021
 H         1.854089         2.822404        -0.120657
 H         3.215648         2.681291        -1.096405
 H         1.398581         0.706990        -2.045943
 H         3.876193        -0.213392        -1.537513
