19
Iteration:   347charge 0 multiplicity 1
 C        -0.111471        -0.384481        -0.038437
 C         1.301557         0.038240         0.145098
 C         2.038412         0.698717         1.356408
 C         3.229950         1.142900         0.455517
 O         4.536501         1.487667         1.014418
 C         2.665671         2.047134        -0.664799
 C         1.958338         0.838619        -1.179332
 C         3.182723        -0.038222        -0.605289
 O         2.338367        -1.048347        -0.179350
 H        -0.270804        -1.277208         0.516507
 H        -0.725638         0.418655         0.329329
 H        -0.459201        -0.546049        -1.124232
 H         1.689584         1.616620         2.026769
 H         2.353079        -0.106070         2.058707
 H         5.024312         0.734069         1.202419
 H         2.089492         2.955579        -0.411510
 H         3.439341         2.457531        -1.324625
 H         1.457310         0.747072        -2.087051
 H         4.177456        -0.386017        -0.984095
