19
Iteration:  3106
 C        -0.054850        -0.651315         0.206837
 C         1.310596        -0.012688         0.092834
 C         2.100281         0.805869         1.293186
 C         3.291036         1.131774         0.381710
 O         4.561013         1.405551         0.998001
 C         2.621693         2.201337        -0.553356
 C         1.848916         0.899708        -1.111375
 C         3.161847         0.030600        -0.761115
 O         2.340920        -1.086195        -0.255261
 H         0.128310        -1.616190         0.747898
 H        -0.692826         0.154413         0.455087
 H        -0.376072        -0.796922        -0.923690
 H         1.528282         1.632322         1.530180
 H         2.387222         0.014694         2.088411
 H         4.454207         2.191878         1.450030
 H         2.094562         2.875818         0.123059
 H         3.280034         2.631282        -1.302053
 H         1.338234         0.921174        -2.056931
 H         4.032510        -0.233345        -1.392236
