19
Iteration:  3174
 C        -0.046181        -0.395148         0.235464
 C         1.429506        -0.098424         0.099317
 C         2.063725         0.647355         1.250761
 C         3.320487         1.142876         0.371822
 O         4.531640         1.484912         0.985407
 C         2.506968         2.169296        -0.465158
 C         1.886750         0.821417        -1.113656
 C         3.181052         0.057096        -0.794156
 O         2.381194        -1.146293        -0.297822
 H        -0.275189        -0.734652         1.238992
 H        -0.612868         0.430678        -0.163685
 H        -0.384030        -1.073626        -0.526144
 H         1.507101         1.489526         1.523975
 H         2.450584        -0.027415         2.159647
 H         4.327259         2.138957         1.796043
 H         1.896661         2.846631         0.107821
 H         2.988108         2.621309        -1.308934
 H         1.430408         0.629046        -2.061412
 H         3.925208        -0.126426        -1.596132
