19
Iteration:  3117
 C        -0.021090        -0.587131         0.168702
 C         1.364378         0.046001         0.111464
 C         2.108281         0.690524         1.254480
 C         3.294994         1.184586         0.373406
 O         4.519820         1.384214         0.983409
 C         2.541812         2.158988        -0.543162
 C         1.926301         0.945598        -1.105437
 C         3.148237        -0.004861        -0.700216
 O         2.324059        -1.051025        -0.270591
 H        -0.084647        -1.416827         0.942871
 H        -0.868727        -0.073030         0.564407
 H        -0.217801        -1.176068        -0.805897
 H         1.714528         1.474614         1.788409
 H         2.526631         0.041747         2.084704
 H         4.528695         2.248508         1.362612
 H         1.953593         3.026958        -0.247784
 H         3.131690         2.528478        -1.380123
 H         1.377145         0.946912        -2.018355
 H         4.041139        -0.384413        -1.221423
