19
Iteration:  4649
 C        -0.032650        -0.640338         0.320559
 C         1.326450        -0.007050         0.126841
 C         2.108830         0.761878         1.216293
 C         3.329255         1.092395         0.379740
 O         4.545311         1.445045         1.006222
 C         2.689577         2.190392        -0.558280
 C         1.925112         0.923920        -1.158809
 C         3.088271         0.052375        -0.793600
 O         2.262408        -1.060849        -0.286433
 H        -0.797635         0.064652         0.744224
 H        -0.514685        -0.904685        -0.645684
 H         0.138259        -1.620961         0.799213
 H         1.582202         1.681415         1.532256
 H         2.335376         0.170089         2.088496
 H         4.440048         1.903356         1.920048
 H         1.981828         2.982169        -0.242353
 H         3.418752         2.437329        -1.332070
 H         1.335810         0.719486        -2.153913
 H         3.899125        -0.309056        -1.435779
