19
Iteration:  3144
 C        -0.049744        -0.470052         0.244700
 C         1.400825        -0.029313         0.086185
 C         2.048024         0.588929         1.314583
 C         3.240864         1.157316         0.434766
 O         4.535485         1.411029         0.961609
 C         2.534686         2.143013        -0.536554
 C         1.881411         0.899183        -1.207747
 C         3.160887         0.085053        -0.740224
 O         2.441988        -1.091700        -0.276278
 H        -0.378442        -0.826514         1.185282
 H        -0.811047         0.356745         0.057241
 H        -0.326153        -1.078243        -0.548379
 H         1.570032         1.379392         2.087479
 H         2.558594        -0.120728         2.040939
 H         4.470895         2.290502         1.335736
 H         2.007087         3.035312        -0.163783
 H         3.168356         2.496180        -1.385174
 H         1.392677         0.784106        -2.232337
 H         4.068949        -0.169965        -1.305895
