19
Iteration:  2085
 C        -0.002278        -0.440454         0.270893
 C         1.397151         0.031426         0.008279
 C         2.062405         0.610969         1.248866
 C         3.298094         1.134226         0.392010
 O         4.404394         1.571902         1.113657
 C         2.601029         2.096506        -0.677157
 C         1.990762         0.854708        -1.177097
 C         3.181268        -0.013616        -0.780480
 O         2.310024        -1.063347        -0.212039
 H        -0.093493        -1.315771         0.897019
 H        -0.495256         0.329394         0.880311
 H        -0.498258        -0.620521        -0.660386
 H         1.596814         1.593558         1.671597
 H         2.272058        -0.254597         1.861111
 H         4.649443         0.757918         1.641434
 H         1.938968         2.807409        -0.175184
 H         3.346193         2.629606        -1.289043
 H         1.415839         0.787461        -2.120779
 H         4.052629        -0.375360        -1.369485
