19
Iteration:   191
 C        -0.151116        -0.328146        -0.075721
 C         1.316439         0.050172         0.055341
 C         2.137005         0.735046         1.329742
 C         3.227211         1.105981         0.426918
 O         4.504892         1.345410         0.976826
 C         2.693846         2.127596        -0.569844
 C         1.947319         0.799076        -1.156265
 C         3.156529        -0.016753        -0.619140
 O         2.330462        -1.092683        -0.076848
 H        -0.469109        -0.968545         0.821638
 H        -0.848088         0.486535        -0.211737
 H        -0.045153        -0.842350        -1.027149
 H         1.668128         1.563967         1.981133
 H         2.534734        -0.138367         2.000782
 H         4.739369         2.252856         1.419623
 H         2.084077         2.943994        -0.178315
 H         3.424808         2.486712        -1.315831
 H         1.448527         0.576196        -2.164676
 H         4.125420        -0.334817        -1.222573
