19
Iteration:  1791charge 0 multiplicity 1
 C        -0.035326        -0.469393         0.177415
 C         1.380715         0.050319         0.062262
 C         2.145151         0.697417         1.267336
 C         3.300666         1.143353         0.369641
 O         4.420280         1.553438         1.133946
 C         2.622835         2.154510        -0.616715
 C         1.960468         0.811232        -1.152090
 C         3.131355        -0.078527        -0.782416
 O         2.318700        -1.060534        -0.242432
 H        -0.131310        -1.003342         1.156802
 H        -0.652082         0.477062         0.211022
 H        -0.481028        -0.985486        -0.650090
 H         1.680794         1.540809         1.737438
 H         2.225637        -0.116836         2.074499
 H         4.933674         0.721814         1.370458
 H         1.796449         2.714881        -0.161550
 H         3.260839         2.627184        -1.389644
 H         1.441305         0.708063        -2.039710
 H         3.989654        -0.515440        -1.290293
