19
Iteration:   902charge 0 multiplicity 1
 C        -0.060764        -0.458544        -0.007592
 C         1.326502         0.031320         0.113519
 C         2.020796         0.839395         1.263103
 C         3.320812         1.174794         0.321975
 O         4.552330         1.287942         0.990462
 C         2.645789         2.195919        -0.674372
 C         1.968146         0.817467        -1.068496
 C         3.178477        -0.036405        -0.596047
 O         2.294340        -1.079212        -0.086228
 H        -0.215775        -1.529971         0.451356
 H        -0.805594         0.095319         0.550956
 H        -0.314056        -0.786224        -1.052776
 H         1.398373         1.678960         1.442634
 H         2.125210         0.297571         2.215667
 H         4.606344         2.003367         1.751733
 H         2.101993         2.890847        -0.011015
 H         3.217948         2.760417        -1.429199
 H         1.479021         0.568642        -2.072527
 H         4.025435        -0.338436        -1.347468
