19
Iteration:  4844
 C        -0.041266        -0.660451         0.251830
 C         1.320195         0.029289         0.133119
 C         2.066010         0.752726         1.274506
 C         3.320988         1.159260         0.403360
 O         4.514797         1.461193         1.017911
 C         2.672886         2.187743        -0.682412
 C         1.896450         0.953152        -1.082133
 C         3.045716         0.067832        -0.779961
 O         2.346934        -1.105608        -0.241882
 H        -0.912232        -0.088835         0.706063
 H        -0.254485        -1.052334        -0.779252
 H         0.104378        -1.423592         0.958533
 H         1.696019         1.621508         1.755221
 H         2.265884         0.124176         2.124020
 H         5.105980         0.668116         0.869582
 H         2.207259         3.014045        -0.149072
 H         3.416262         2.498159        -1.431463
 H         1.347325         0.813249        -2.001943
 H         3.818830         0.021426        -1.497961
