19
Iteration:  3349
 C        -0.083231        -0.493756         0.153221
 C         1.336272         0.049954         0.066852
 C         2.219166         0.547323         1.337531
 C         3.271178         1.123824         0.389936
 O         4.540997         1.563983         0.978742
 C         2.515097         2.150839        -0.588900
 C         1.858568         0.848706        -1.179541
 C         3.162665         0.052253        -0.706907
 O         2.364383        -1.093321        -0.231666
 H        -0.352640        -0.701877         1.270620
 H        -0.712893         0.379791        -0.111481
 H        -0.129273        -1.473310        -0.388071
 H         1.780265         1.302339         1.910462
 H         2.548834        -0.369024         1.984719
 H         4.341955         1.403228         1.897092
 H         1.957167         3.055722        -0.387576
 H         3.371512         2.471470        -1.202219
 H         1.248841         1.038810        -2.096495
 H         4.063648        -0.230674        -1.314201
