19
Iteration:  4386
 C        -0.066120        -0.507631         0.274330
 C         1.417366        -0.001995         0.095746
 C         2.100392         0.683882         1.276208
 C         3.218121         1.183175         0.380238
 O         4.523073         1.277197         1.013544
 C         2.513708         2.133712        -0.633483
 C         1.956694         0.912611        -1.175911
 C         3.139865         0.071078        -0.747536
 O         2.411015        -1.013117        -0.211099
 H        -0.363698        -0.018351         1.257133
 H        -0.681814        -0.135133        -0.589231
 H         0.092374        -1.532434         0.171533
 H         1.527662         1.465039         1.783180
 H         2.382228        -0.061272         2.023356
 H         4.439161         2.044103         1.586988
 H         1.819246         2.971600        -0.525533
 H         3.140053         2.567018        -1.464005
 H         1.322226         0.703520        -2.189937
 H         3.980581        -0.180292        -1.338529
