19
Iteration:  3126
 C         0.007761        -0.558615         0.189718
 C         1.375122         0.021653         0.097983
 C         2.145016         0.607870         1.292351
 C         3.256192         1.191508         0.415277
 O         4.510378         1.385348         0.975118
 C         2.549094         2.182047        -0.611647
 C         1.938373         0.869507        -1.103175
 C         3.121174         0.047739        -0.720181
 O         2.301830        -1.008931        -0.235071
 H         0.223670        -1.174252         1.159229
 H        -0.826855         0.179792         0.164847
 H        -0.319445        -1.130438        -0.821880
 H         1.585745         1.331649         1.859194
 H         2.348775        -0.248917         1.822056
 H         4.646492         2.249921         1.320146
 H         1.789615         2.916477        -0.242595
 H         3.386932         2.615558        -1.204903
 H         1.415866         0.750275        -2.085774
 H         3.998857        -0.101456        -1.346092
