19
Iteration:  2040
 C        -0.072347        -0.483162         0.148934
 C         1.347420        -0.035940         0.124243
 C         2.021367         0.647080         1.310265
 C         3.303456         1.130923         0.433764
 O         4.513248         1.518399         0.995703
 C         2.640254         2.115162        -0.648299
 C         1.940272         0.861229        -1.140084
 C         3.178681         0.019007        -0.721252
 O         2.331544        -1.025719        -0.230875
 H        -0.026053        -1.449046         0.593640
 H        -0.671561        -0.015308         0.977152
 H        -0.434630        -0.526236        -0.856228
 H         1.382908         1.584156         1.560181
 H         2.473909        -0.068021         1.967420
 H         4.469751         1.353504         1.956192
 H         2.079907         3.057539        -0.433077
 H         3.329604         2.256593        -1.500820
 H         1.478435         0.796281        -2.102942
 H         4.050881        -0.166428        -1.302011
