19
Iteration:  3063
 C        -0.029188        -0.549355         0.234935
 C         1.404979         0.012912         0.077434
 C         2.102852         0.712528         1.292209
 C         3.239982         1.201760         0.399046
 O         4.472540         1.336101         0.967069
 C         2.581163         2.212074        -0.634781
 C         1.903173         0.877602        -1.205567
 C         3.154466         0.091264        -0.673727
 O         2.372728        -1.060596        -0.240762
 H         0.041289        -1.610934         0.551971
 H        -0.494753         0.062358         0.976272
 H        -0.683804        -0.656451        -0.689061
 H         1.674860         1.547516         1.886645
 H         2.594094        -0.298411         1.895317
 H         4.333505         1.659179         1.812905
 H         1.846207         2.882624        -0.174483
 H         3.353247         2.586256        -1.310768
 H         1.352416         0.581058        -2.092683
 H         4.128513        -0.111131        -1.170419
