19
Iteration:  2003
 C        -0.065812        -0.523840         0.120060
 C         1.367490        -0.003939         0.118514
 C         2.078977         0.733296         1.271381
 C         3.294137         1.130786         0.345392
 O         4.524350         1.469517         0.984333
 C         2.564248         2.154936        -0.595582
 C         1.966250         0.888455        -1.106290
 C         3.152293        -0.001761        -0.729534
 O         2.327124        -1.034570        -0.170222
 H        -0.092591        -1.399402         0.834349
 H        -0.906151         0.151620         0.238124
 H        -0.210960        -0.996225        -0.903925
 H         1.577818         1.551884         1.608971
 H         2.318764         0.146228         2.237984
 H         4.565248         0.981323         1.757035
 H         1.963278         2.864228        -0.013969
 H         3.260684         2.648091        -1.301083
 H         1.543916         0.742086        -2.127113
 H         4.025209        -0.423621        -1.256635
