19
Iteration:  4910
 C        -0.037733        -0.331541         0.278327
 C         1.459588        -0.087779         0.074987
 C         2.198923         0.558602         1.238787
 C         3.247336         1.149818         0.359871
 O         4.490865         1.432556         0.953198
 C         2.454822         2.116045        -0.547651
 C         1.885540         0.882805        -1.116083
 C         3.185457         0.097634        -0.718815
 O         2.382057        -1.132486        -0.275107
 H        -0.573227         0.648185         0.254003
 H        -0.486990        -0.967631        -0.511096
 H        -0.313555        -0.638013         1.231517
 H         1.576019         1.223897         1.755784
 H         2.537140        -0.177994         1.894445
 H         4.566910         2.202994         1.617045
 H         1.771158         2.748186        -0.034001
 H         2.949071         2.500018        -1.410520
 H         1.232748         0.888482        -1.952039
 H         4.012326        -0.112121        -1.345863
