19
Iteration:  3208charge 0 multiplicity 1
 C        -0.062571        -0.522058         0.195526
 C         1.334009         0.007231         0.107881
 C         2.150826         0.594531         1.302149
 C         3.260006         1.180668         0.354688
 O         4.478879         1.481145         0.946596
 C         2.583274         2.197755        -0.590271
 C         1.955722         0.827852        -1.130153
 C         3.173434         0.077198        -0.751686
 O         2.312734        -1.045635        -0.212138
 H        -0.064882        -1.206986         1.006611
 H        -0.813492         0.242591         0.490043
 H        -0.118229        -1.144058        -0.611674
 H         1.611487         1.236860         2.005571
 H         2.507911        -0.345589         1.918309
 H         4.511229         1.534120         1.989016
 H         2.103229         3.091611        -0.215352
 H         3.280628         2.534814        -1.365354
 H         1.561675         0.636649        -2.163983
 H         3.973544        -0.146893        -1.480001
