19
Iteration:  3358charge 0 multiplicity 1
 C        -0.080453        -0.514182         0.201468
 C         1.353479        -0.000357         0.065932
 C         2.204569         0.549489         1.266803
 C         3.234204         1.201632         0.424110
 O         4.473098         1.491755         0.953539
 C         2.555174         2.132382        -0.634077
 C         1.922065         0.899472        -1.104069
 C         3.186791         0.036377        -0.699793
 O         2.354983        -1.030674        -0.236373
 H        -0.248334        -0.538253         1.308367
 H        -0.728660         0.180825        -0.191923
 H        -0.180743        -1.377007        -0.472996
 H         1.709435         1.343311         2.072938
 H         2.547218        -0.425116         1.815248
 H         4.478251         1.542404         1.915558
 H         1.935394         2.927672        -0.237696
 H         3.343492         2.418591        -1.329739
 H         1.357591         0.791802        -1.965102
 H         3.985467        -0.141525        -1.451162
