19
Iteration:  4994
 C         0.030379        -0.611595         0.259329
 C         1.424628         0.013405         0.102577
 C         2.088432         0.761927         1.256573
 C         3.284853         1.096367         0.387192
 O         4.472728         1.372098         1.047772
 C         2.525157         2.187488        -0.570766
 C         1.832233         0.923609        -1.115303
 C         3.088088         0.078113        -0.782487
 O         2.405488        -1.009188        -0.254742
 H        -0.617853         0.110017         0.810692
 H        -0.544541        -0.837594        -0.672827
 H         0.046134        -1.572894         0.782027
 H         1.671312         1.691854         1.672275
 H         2.480085         0.036075         2.076924
 H         5.088880         0.918328         0.514113
 H         2.157637         3.188184        -0.332409
 H         3.265512         2.406711        -1.422732
 H         1.197771         0.781845        -1.961103
 H         3.874495        -0.163422        -1.407178
