19
Iteration:   508
 C        -0.113761        -0.355711         0.091666
 C         1.349459         0.006373         0.054179
 C         1.937508         0.704334         1.282673
 C         3.267298         1.127708         0.452728
 O         4.552209         1.373105         1.000610
 C         2.667114         2.104967        -0.615135
 C         2.043398         0.864206        -1.155669
 C         3.202171        -0.028877        -0.628201
 O         2.344284        -1.099764        -0.161850
 H        -0.343231        -1.389069         0.407208
 H        -0.636870         0.366777         0.702550
 H        -0.505568        -0.299386        -0.959222
 H         1.294551         1.426014         1.548624
 H         2.115050         0.038246         2.106161
 H         4.398917         2.283978         1.229258
 H         2.041257         2.954191        -0.340705
 H         3.369467         2.515168        -1.337514
 H         1.506531         0.700357        -2.153498
 H         4.142877        -0.301845        -1.215104
