19
Iteration:  3545charge 0 multiplicity 1
 C        -0.033830        -0.585495         0.264776
 C         1.361159        -0.030734         0.082909
 C         2.089774         0.791926         1.232257
 C         3.337827         1.094677         0.368994
 O         4.485491         1.541767         1.026711
 C         2.617833         2.123572        -0.539800
 C         1.833965         0.923475        -1.149349
 C         3.177563        -0.012186        -0.802009
 O         2.362433        -1.124627        -0.266497
 H        -0.026005        -0.901113         1.389796
 H        -0.778902         0.225146         0.353181
 H        -0.307760        -1.230917        -0.614251
 H         1.532004         1.810093         1.382074
 H         2.114774         0.053609         2.169224
 H         4.430527         1.386542         2.007024
 H         2.120539         2.966639        -0.010558
 H         3.337337         2.384523        -1.370721
 H         1.461387         1.039927        -2.215817
 H         3.899392        -0.319297        -1.563883
