19
Iteration:  4786
 C        -0.083038        -0.410998         0.346327
 C         1.395135        -0.054935         0.095722
 C         2.112210         0.678539         1.224211
 C         3.263642         1.134328         0.389790
 O         4.486415         1.422850         1.063902
 C         2.535883         2.119993        -0.593477
 C         1.910495         0.839491        -1.155399
 C         3.178136        -0.007624        -0.810908
 O         2.409721        -1.065377        -0.282721
 H        -0.534192         0.526243         0.673511
 H        -0.635977        -0.551002        -0.585244
 H        -0.347027        -1.361566         0.886642
 H         1.650914         1.572978         1.519863
 H         2.397507        -0.053567         2.042809
 H         4.765802         2.332402         0.865461
 H         2.007131         2.920540        -0.056522
 H         3.275888         2.629341        -1.273359
 H         1.193328         0.781708        -2.026040
 H         4.100537        -0.358050        -1.312493
