19
Iteration:  3298
 C        -0.054053        -0.481319         0.245484
 C         1.362781        -0.000132         0.103740
 C         2.073331         0.656708         1.263581
 C         3.252704         1.121350         0.447187
 O         4.478456         1.564849         1.003683
 C         2.600191         2.112472        -0.634605
 C         1.907608         0.822423        -1.153182
 C         3.115779         0.043252        -0.715713
 O         2.420999        -1.074443        -0.265490
 H        -0.163695        -1.368155         0.810820
 H        -0.573923         0.454598         0.688205
 H        -0.403448        -0.830727        -0.719563
 H         1.384231         1.450919         1.803487
 H         2.399978        -0.160816         1.893797
 H         5.150124         0.771705         1.169784
 H         2.020679         2.904051        -0.088703
 H         3.251632         2.719908        -1.301241
 H         1.410046         0.816709        -2.216736
 H         3.990533        -0.142807        -1.340531
