19
Iteration:  3400charge 0 multiplicity 1
 C        -0.041796        -0.577627         0.267774
 C         1.398553        -0.030230         0.042045
 C         2.016734         0.776643         1.184793
 C         3.316633         1.126528         0.413672
 O         4.524156         1.350990         1.018643
 C         2.577823         2.144030        -0.531124
 C         1.870996         0.850851        -1.074494
 C         3.153795         0.069811        -0.808691
 O         2.416717        -1.013591        -0.269664
 H        -0.066176        -0.882864         1.313703
 H        -0.705363         0.250798         0.336960
 H        -0.181919        -1.391024        -0.480355
 H         1.224513         1.656322         1.467328
 H         2.265292         0.178219         2.054954
 H         4.472422         2.098368         1.556891
 H         1.852379         2.885458        -0.119592
 H         3.073534         2.560296        -1.425977
 H         1.471608         0.960349        -2.009215
 H         3.992562        -0.287672        -1.421603
