19
Iteration:  3867
 C        -0.028791        -0.603191         0.174151
 C         1.371801         0.032186         0.108030
 C         2.088960         0.681144         1.308231
 C         3.263896         1.223661         0.382244
 O         4.524571         1.327435         0.962866
 C         2.598264         2.179833        -0.673570
 C         1.875198         0.883501        -1.145824
 C         3.111785         0.038557        -0.698566
 O         2.378202        -1.024804        -0.159913
 H        -0.023017        -1.393219         0.911862
 H        -0.735720         0.149811         0.594742
 H        -0.108522        -0.907441        -0.840022
 H         1.516154         1.417292         1.664880
 H         2.285487        -0.016040         2.171202
 H         4.634471         2.338830         1.209903
 H         1.907767         2.976181        -0.348745
 H         3.371970         2.534584        -1.349180
 H         1.157444         0.735805        -1.946834
 H         4.136114        -0.157518        -1.183422
