19
Iteration:   602charge 0 multiplicity 1
 C        -0.105174        -0.468019         0.070543
 C         1.374036        -0.020085         0.076796
 C         1.954399         0.878810         1.257013
 C         3.325756         1.098309         0.422112
 O         4.577291         1.320411         0.984985
 C         2.605732         2.086021        -0.556133
 C         2.010981         0.890290        -1.177650
 C         3.179442        -0.032728        -0.700866
 O         2.339520        -1.044108        -0.153359
 H        -0.754236        -0.854959         0.975072
 H        -0.745482         0.465274        -0.152857
 H        -0.353582        -1.285368        -0.540664
 H         1.321179         1.782950         1.630736
 H         2.111127         0.374957         2.277550
 H         4.449998         1.680930         1.895686
 H         2.028416         2.946230        -0.097765
 H         3.235843         2.568196        -1.362405
 H         1.711483         0.846492        -2.283673
 H         4.151216        -0.391648        -1.163136
