19
Iteration:  2801
 C        -0.066911        -0.572685         0.259213
 C         1.348400        -0.064578         0.148708
 C         2.041610         0.749872         1.266533
 C         3.342169         1.140121         0.409534
 O         4.521062         1.487808         1.015677
 C         2.619980         2.152746        -0.577152
 C         1.940164         0.928233        -1.104238
 C         3.132352         0.017628        -0.840587
 O         2.370715        -1.085513        -0.320483
 H        -0.280955        -1.087948         1.225748
 H        -0.760101         0.332958         0.018025
 H        -0.426222        -1.243114        -0.580335
 H         1.457997         1.687178         1.584591
 H         2.246235         0.033702         1.983243
 H         4.660840         1.072528         1.962539
 H         1.843749         2.878977        -0.148220
 H         3.336619         2.613279        -1.325452
 H         1.328836         1.003657        -1.986706
 H         3.996292        -0.189778        -1.417330
