19
Iteration:  1079
 C        -0.114201        -0.466486         0.183821
 C         1.293918         0.018374         0.094954
 C         2.063227         0.751600         1.277709
 C         3.257155         1.102871         0.401974
 O         4.484498         1.454465         1.078208
 C         2.753482         2.081230        -0.781790
 C         1.998321         0.868913        -1.244766
 C         3.160092         0.028553        -0.688815
 O         2.299379        -1.035443        -0.152811
 H         0.091125        -1.341662         0.692622
 H        -0.973368         0.134940         0.696606
 H        -0.521207        -0.788734        -0.911686
 H         1.539116         1.458317         1.807244
 H         2.435552        -0.126668         1.948109
 H         4.379961         1.344782         2.121165
 H         2.402804         3.030350        -0.248722
 H         3.606338         2.335352        -1.413615
 H         1.461329         0.725898        -2.130829
 H         4.048191        -0.338441        -1.098570
