19
Iteration:  4795charge 0 multiplicity 1
 C        -0.060955        -0.413362         0.307092
 C         1.348942         0.009412         0.132258
 C         2.095536         0.667693         1.219625
 C         3.316629         1.154022         0.335479
 O         4.449442         1.363320         1.063290
 C         2.540793         2.165059        -0.538647
 C         1.897319         0.885387        -1.219106
 C         3.185633        -0.023689        -0.746792
 O         2.437714        -1.099785        -0.266161
 H        -0.566749         0.205378         1.000110
 H        -0.484258        -0.577413        -0.640078
 H        -0.060536        -1.251679         1.090641
 H         1.428957         1.439730         1.619805
 H         2.401774         0.264605         2.197908
 H         4.815215         2.172943         0.662377
 H         1.809205         2.915694        -0.213018
 H         3.118158         2.445761        -1.429525
 H         1.405681         0.820128        -2.217991
 H         4.012771        -0.241533        -1.513016
