19
Iteration:  3810
 C        -0.025537        -0.394169         0.280030
 C         1.386845        -0.002178         0.026197
 C         2.175403         0.558252         1.332155
 C         3.262604         1.210666         0.388649
 O         4.421800         1.598059         0.987958
 C         2.579278         2.109100        -0.583977
 C         1.947587         0.768697        -1.171458
 C         3.117203         0.037247        -0.750478
 O         2.345819        -1.102297        -0.269716
 H        -0.234059        -0.569753         1.388849
 H        -0.708759         0.310075        -0.245886
 H        -0.399493        -1.299221        -0.062602
 H         1.584095         1.209174         1.829795
 H         2.539118        -0.243880         1.914263
 H         4.602065         1.016452         1.674543
 H         2.003674         3.006395        -0.307483
 H         3.305730         2.401186        -1.361973
 H         1.631050         0.687092        -2.201653
 H         4.030427        -0.140407        -1.190290
