19
Iteration:  4736
 C        -0.078094        -0.466410         0.162421
 C         1.358111        -0.009320         0.121523
 C         2.147689         0.610610         1.366764
 C         3.315207         1.114709         0.409881
 O         4.543805         1.519074         0.890134
 C         2.614573         2.091498        -0.518944
 C         1.955333         0.870244        -1.130244
 C         3.133583         0.023018        -0.769663
 O         2.263421        -1.093622        -0.228741
 H        -0.707177         0.426116        -0.059386
 H        -0.465112        -1.250747        -0.518822
 H        -0.276115        -0.811020         1.120345
 H         1.677680         1.447759         1.977288
 H         2.672710        -0.150283         1.939401
 H         4.345037         2.336101         1.294710
 H         1.952090         2.843804        -0.021901
 H         3.151255         2.687458        -1.248175
 H         1.445587         0.847229        -2.091276
 H         3.893241        -0.248520        -1.489596
