19
Iteration:  3663charge 0 multiplicity 1
 C        -0.065677        -0.447434         0.234774
 C         1.341181        -0.008888         0.052906
 C         2.133959         0.583313         1.298094
 C         3.271720         1.116685         0.374468
 O         4.444886         1.573799         1.095735
 C         2.670400         2.137378        -0.706617
 C         1.935275         0.846830        -1.170150
 C         3.168421        -0.046468        -0.726046
 O         2.328378        -1.079353        -0.197494
 H         0.172553        -1.413762         0.995849
 H        -0.604700         0.291756         0.883312
 H        -0.905172        -0.685979        -0.603800
 H         1.530211         1.393462         1.903763
 H         2.392310        -0.281340         1.912714
 H         4.473814         2.588392         0.748945
 H         1.973864         2.989265        -0.505928
 H         3.525206         2.411072        -1.390931
 H         1.410534         0.616688        -2.092524
 H         4.153907        -0.246058        -1.320522
