19
Iteration:   767charge 0 multiplicity 1
 C        -0.070513        -0.437196         0.014471
 C         1.332568         0.042314         0.070508
 C         2.043569         0.748395         1.291514
 C         3.260135         1.167128         0.395248
 O         4.557817         1.344522         0.944653
 C         2.671352         2.188025        -0.579180
 C         1.971205         0.836315        -1.168087
 C         3.180174        -0.036434        -0.623954
 O         2.262606        -1.055226        -0.093691
 H        -0.344166        -1.125676         1.012708
 H        -0.819343         0.300637        -0.346705
 H         0.068731        -1.190749        -0.755071
 H         1.565612         1.582532         1.687290
 H         2.279715         0.072431         2.086795
 H         4.563704         1.791045         1.839956
 H         1.997077         2.989674        -0.209931
 H         3.404773         2.435890        -1.365287
 H         1.432941         0.667893        -2.091625
 H         4.020748        -0.501889        -1.090252
