19
Iteration:  3440
 C         0.006795        -0.588736         0.170814
 C         1.328685         0.004165         0.113555
 C         2.078724         0.684986         1.365287
 C         3.228743         1.240408         0.377314
 O         4.548514         1.369452         0.966413
 C         2.583638         2.149781        -0.640790
 C         1.948931         0.856748        -1.106826
 C         3.156487         0.037399        -0.717182
 O         2.329992        -0.999615        -0.225387
 H         0.050145        -1.612725         0.514901
 H        -0.835613        -0.025261         0.790023
 H        -0.466522        -0.823309        -0.802411
 H         1.522912         1.330102         1.911091
 H         2.479875        -0.052828         2.020121
 H         4.422697         2.252337         1.511002
 H         2.053215         3.105294        -0.482620
 H         3.280816         2.344424        -1.464310
 H         1.368546         0.840025        -2.125027
 H         4.044866        -0.139567        -1.286091
