19
Iteration:   992charge 0 multiplicity 1
 C        -0.041865        -0.338945         0.194743
 C         1.376038         0.082287         0.030160
 C         2.116220         0.659450         1.222314
 C         3.301624         1.081869         0.384256
 O         4.484461         1.466182         1.118436
 C         2.571244         2.095167        -0.712909
 C         2.000010         0.853684        -1.182024
 C         3.151395        -0.058647        -0.655633
 O         2.285275        -1.128704        -0.199519
 H        -0.368092        -0.585995         1.167303
 H        -0.657980         0.595115        -0.073390
 H        -0.123153        -1.310674        -0.465224
 H         1.703719         1.460595         1.713834
 H         2.353561        -0.195317         1.898002
 H         4.079503         1.973736         1.945531
 H         2.076566         3.011147        -0.494731
 H         3.424286         2.499681        -1.168942
 H         1.512148         0.760489        -2.122777
 H         3.946941        -0.358825        -1.285072
