19
Iteration:  4931charge 0 multiplicity 1
 C        -0.067814        -0.343824         0.281655
 C         1.418792        -0.064485         0.136329
 C         2.127308         0.589855         1.344531
 C         3.218837         1.096019         0.411407
 O         4.529871         1.519366         0.995768
 C         2.512540         2.171378        -0.515344
 C         1.929603         0.827647        -1.135594
 C         3.092984        -0.027240        -0.889679
 O         2.438326        -1.097630        -0.344631
 H        -0.684113         0.584585         0.393299
 H        -0.412848        -0.949446        -0.583606
 H        -0.225833        -0.884629         1.151191
 H         1.596687         1.330953         1.848116
 H         2.372593        -0.212152         2.002684
 H         4.522362         2.435357         1.068330
 H         2.005304         2.908163         0.030966
 H         3.285117         2.525959        -1.208221
 H         1.368367         0.539726        -1.984161
 H         3.858259        -0.270386        -1.552721
