19
Iteration:  1381
 C        -0.103425        -0.423538         0.275735
 C         1.341505        -0.014141         0.058502
 C         2.035779         0.615351         1.215369
 C         3.279478         1.152144         0.375513
 O         4.418814         1.518629         1.085988
 C         2.752855         2.096494        -0.643670
 C         1.951396         0.851318        -1.161725
 C         3.141268         0.003185        -0.656254
 O         2.362258        -1.032902        -0.300185
 H        -0.334933        -0.704573         1.318664
 H        -0.670855         0.451024         0.101978
 H        -0.361665        -1.120491        -0.472071
 H         1.441303         1.504506         1.701474
 H         2.267140        -0.086523         1.966427
 H         4.905021         0.760762         1.544820
 H         2.351924         3.039849        -0.371335
 H         3.529529         2.316997        -1.366563
 H         1.553709         0.720683        -2.131790
 H         3.989736        -0.264763        -1.239538
