19
Iteration:  3229charge 0 multiplicity 1
 C        -0.048175        -0.598061         0.220106
 C         1.357868        -0.034110         0.061564
 C         2.067741         0.737840         1.254582
 C         3.277734         1.165613         0.411129
 O         4.530626         1.497915         0.962754
 C         2.652561         2.127271        -0.579579
 C         1.851445         0.953347        -1.122786
 C         3.110854         0.005193        -0.718290
 O         2.385244        -1.079938        -0.250691
 H        -0.080434        -1.527168         0.799778
 H        -0.589235         0.243506         0.743849
 H        -0.406464        -0.918382        -0.756667
 H         1.509803         1.532990         1.552067
 H         2.369338         0.065946         2.143051
 H         4.741886         1.236843         1.908822
 H         2.055283         2.970816        -0.257950
 H         3.311473         2.506267        -1.356698
 H         1.152881         0.900122        -1.969844
 H         4.001821        -0.226999        -1.337626
