19
Iteration:  2958
 C        -0.067380        -0.543914         0.203765
 C         1.384254        -0.017711         0.115948
 C         2.078554         0.697042         1.256624
 C         3.274308         1.120728         0.336158
 O         4.511940         1.485782         1.017503
 C         2.547266         2.184320        -0.513796
 C         1.933161         0.889424        -1.102484
 C         3.172184        -0.013936        -0.816489
 O         2.382556        -1.056510        -0.261524
 H        -0.233048        -0.743618         1.304615
 H        -0.756965         0.367843        -0.143731
 H        -0.191928        -1.397503        -0.471838
 H         1.516304         1.629559         1.596537
 H         2.249305         0.155063         2.075153
 H         4.802355         0.677146         1.539576
 H         1.911433         2.886857         0.019504
 H         3.099769         2.860172        -1.178197
 H         1.284240         0.909835        -1.997726
 H         4.100709        -0.250510        -1.412142
