19
Iteration:  3486
 C        -0.061197        -0.437297         0.206202
 C         1.378329        -0.036923         0.124887
 C         2.083557         0.660626         1.270146
 C         3.284328         1.169553         0.427107
 O         4.498106         1.511640         0.927885
 C         2.545974         2.147740        -0.591602
 C         1.919380         0.786776        -1.164617
 C         3.234937         0.006842        -0.755085
 O         2.383760        -1.082700        -0.212894
 H        -0.248258        -1.519530         0.374812
 H        -0.611780         0.211666         0.985387
 H        -0.672567        -0.291399        -0.749013
 H         1.512643         1.380892         1.789290
 H         2.300714        -0.072223         1.913538
 H         4.420340         1.779573         1.931582
 H         1.849224         2.842787        -0.050503
 H         3.165945         2.793858        -1.218953
 H         1.426742         0.585086        -2.095576
 H         4.089420        -0.388523        -1.342807
