19
Iteration:  1222charge 0 multiplicity 1
 C        -0.113991        -0.454101         0.156724
 C         1.329898         0.046572         0.070135
 C         2.100203         0.692670         1.291128
 C         3.246076         1.170584         0.417598
 O         4.466889         1.446009         1.052796
 C         2.692784         2.103444        -0.716573
 C         2.008156         0.862652        -1.184989
 C         3.218584         0.043472        -0.685999
 O         2.262830        -1.079539        -0.185132
 H        -0.195488        -1.127117         0.918683
 H        -0.895442         0.302141         0.412798
 H        -0.440291        -1.029843        -0.740965
 H         1.749549         1.572027         1.804571
 H         2.289460        -0.183275         2.093995
 H         4.580952         0.766623         1.833796
 H         2.224428         3.070689        -0.439878
 H         3.466204         2.452738        -1.410325
 H         1.534024         0.678858        -2.167407
 H         4.185366        -0.190644        -1.176952
