19
Iteration:  4391
 C        -0.084092        -0.474610         0.251770
 C         1.426873        -0.019697         0.073768
 C         2.113846         0.660998         1.320572
 C         3.253780         1.169813         0.416999
 O         4.528475         1.310209         1.010489
 C         2.521250         2.161418        -0.643533
 C         1.889567         0.898919        -1.204595
 C         3.181880         0.076933        -0.816329
 O         2.385325        -1.023501        -0.186333
 H        -0.408720        -0.070707         1.174457
 H        -0.797943        -0.251160        -0.542139
 H        -0.038361        -1.636229         0.235674
 H         1.477203         1.469803         1.837539
 H         2.365056        -0.081726         2.097038
 H         4.512427         2.107089         1.676034
 H         1.818652         3.008769        -0.442122
 H         3.222645         2.419224        -1.441843
 H         1.345046         0.695468        -2.069353
 H         4.209059        -0.183296        -1.309668
