19
Iteration:  2254
 C        -0.109212        -0.483316         0.206961
 C         1.327092        -0.003203         0.141914
 C         2.104370         0.625602         1.325154
 C         3.258707         1.158063         0.432115
 O         4.446134         1.545461         0.993403
 C         2.654554         2.095363        -0.700798
 C         1.987420         0.849604        -1.225476
 C         3.218743         0.064666        -0.675196
 O         2.325390        -1.049797        -0.230874
 H        -0.116264        -1.548687         0.530808
 H        -0.803601         0.085221         0.764479
 H        -0.533638        -0.444746        -0.809958
 H         1.682334         1.470730         2.058328
 H         2.445582        -0.260200         1.926902
 H         4.765900         0.871299         1.632441
 H         2.071767         2.918785        -0.263487
 H         3.357126         2.596114        -1.354769
 H         1.394786         0.708846        -2.142164
 H         4.048230        -0.247083        -1.412062
