19
Iteration:  2332charge 0 multiplicity 1
 C        -0.025382        -0.494751         0.250718
 C         1.342162         0.015825         0.086248
 C         2.129154         0.561548         1.242079
 C         3.254785         1.152861         0.391240
 O         4.435745         1.519325         1.042591
 C         2.650889         2.162928        -0.693611
 C         1.926829         0.942573        -1.144563
 C         3.106429         0.029434        -0.694117
 O         2.367294        -1.053025        -0.248801
 H        -0.124991        -0.720457         1.280623
 H        -0.813134         0.288091        -0.128792
 H        -0.241800        -1.368922        -0.340806
 H         1.383271         1.237856         1.860405
 H         2.477577        -0.174789         2.110948
 H         4.728711         0.795970         1.487795
 H         2.001186         2.978660        -0.264892
 H         3.467083         2.392760        -1.432554
 H         1.553716         0.735049        -2.177695
 H         4.057309        -0.306126        -1.166192
