19
Iteration:  4739charge 0 multiplicity 1
 C        -0.093769        -0.446646         0.157386
 C         1.353368        -0.027657         0.137975
 C         2.166977         0.618394         1.375720
 C         3.329559         1.123156         0.405030
 O         4.523076         1.523217         0.888001
 C         2.641881         2.096140        -0.525233
 C         1.938762         0.880363        -1.116030
 C         3.143602        -0.003810        -0.787449
 O         2.257376        -1.084009        -0.239270
 H        -0.690788         0.369642        -0.052948
 H        -0.452244        -1.216786        -0.465763
 H        -0.254256        -0.931748         1.124389
 H         1.672200         1.351283         2.014230
 H         2.581601        -0.211258         1.872249
 H         4.293458         2.457140         1.304905
 H         1.852592         2.754385        -0.114088
 H         3.213380         2.670214        -1.222868
 H         1.427566         0.870182        -2.031408
 H         4.065796        -0.270125        -1.392571
