19
Iteration:  2862charge 0 multiplicity 1
 C        -0.125023        -0.457628         0.218868
 C         1.418598        -0.060840         0.082285
 C         2.064754         0.625935         1.266254
 C         3.275422         1.166148         0.439980
 O         4.541933         1.547813         0.955820
 C         2.602080         2.112791        -0.597597
 C         1.893518         0.888439        -1.112433
 C         3.097565         0.100931        -0.740896
 O         2.406849        -1.153107        -0.290099
 H        -0.256368        -1.464896         0.624463
 H        -0.525939         0.171648         0.924418
 H        -0.607989        -0.370876        -0.756108
 H         1.515660         1.362669         1.931048
 H         2.397447        -0.159431         2.109662
 H         4.475712         1.334910         1.994483
 H         2.158798         3.050237        -0.384256
 H         3.423194         2.412295        -1.218223
 H         1.448597         0.650853        -2.077764
 H         4.028544        -0.056709        -1.297659
