19
Iteration:   619charge 0 multiplicity 1
 C        -0.067714        -0.409728        -0.000958
 C         1.330168         0.090532         0.030063
 C         2.057712         0.743165         1.235233
 C         3.239345         1.183597         0.397538
 O         4.564040         1.288441         0.966250
 C         2.622888         2.172319        -0.587334
 C         1.964265         0.780232        -1.162046
 C         3.146441         0.012661        -0.615717
 O         2.353871        -1.067284        -0.048831
 H        -0.348632        -0.784518         0.935424
 H        -0.762764         0.377853        -0.232948
 H        -0.058655        -1.359632        -0.698872
 H         1.606228         1.631512         1.605377
 H         2.174275         0.042259         2.049664
 H         4.578840         1.497822         1.962800
 H         1.848617         2.836942        -0.232982
 H         3.367049         2.689391        -1.177757
 H         1.403286         0.682132        -2.031864
 H         3.950716        -0.275759        -1.229662
