19
Iteration:  1063
 C        -0.092456        -0.529306         0.110620
 C         1.342953         0.107860         0.105776
 C         2.060610         0.744589         1.280592
 C         3.273885         1.167172         0.402330
 O         4.494429         1.385315         0.978979
 C         2.693990         2.165295        -0.642415
 C         2.057911         0.866034        -1.232045
 C         3.117710        -0.081689        -0.666815
 O         2.287537        -1.054017        -0.094252
 H        -0.227766        -1.513949         0.688183
 H        -0.717206         0.195299         0.543809
 H        -0.318182        -0.766697        -0.851965
 H         1.600194         1.786476         1.700520
 H         2.245848         0.092676         2.126433
 H         4.327324         1.367643         1.998811
 H         1.958442         2.984430        -0.588667
 H         3.485491         2.632515        -1.295210
 H         1.622105         0.803543        -2.285404
 H         4.016184        -0.409530        -1.298441
