19
Iteration:  3820charge 0 multiplicity 1
 C        -0.049497        -0.419855         0.283418
 C         1.392125        -0.067322         0.100288
 C         2.095312         0.628669         1.275799
 C         3.242520         1.135947         0.424940
 O         4.479023         1.564138         0.984331
 C         2.529890         2.127525        -0.639653
 C         1.946718         0.888160        -1.160695
 C         3.187345         0.000478        -0.750686
 O         2.369171        -1.131236        -0.286413
 H        -0.263874        -0.353404         1.387550
 H        -0.579094         0.460645        -0.064204
 H        -0.165589        -1.307942        -0.243696
 H         1.681021         1.389798         1.941031
 H         2.441781        -0.177696         1.841953
 H         4.514692         1.346105         1.917229
 H         1.858774         2.907648        -0.242723
 H         3.273655         2.533709        -1.362118
 H         1.547519         0.666322        -2.153505
 H         3.945316        -0.161574        -1.407848
