19
Iteration:  1933
 C        -0.036009        -0.429657         0.203870
 C         1.372069         0.055282         0.037499
 C         2.133289         0.632108         1.272936
 C         3.372407         1.143103         0.412374
 O         4.487226         1.600673         1.119325
 C         2.567103         2.142892        -0.618765
 C         1.936268         0.844425        -1.221957
 C         3.137945        -0.057815        -0.700322
 O         2.299418        -1.124313        -0.276245
 H        -0.130485        -0.698487         1.350432
 H        -0.893686         0.250013        -0.121768
 H        -0.275512        -1.370374        -0.347574
 H         1.427496         1.485411         1.715676
 H         2.152510        -0.105984         2.039875
 H         4.856127         0.809766         1.549130
 H         1.807786         2.724778        -0.014078
 H         3.190878         2.769639        -1.350750
 H         1.569679         0.706664        -2.238739
 H         3.874149        -0.395401        -1.511835
