19
Iteration:  3044charge 0 multiplicity 1
 C        -0.035340        -0.492266         0.265633
 C         1.383587         0.024307         0.067773
 C         2.135505         0.642104         1.245028
 C         3.288957         1.186713         0.386778
 O         4.520710         1.417146         1.021772
 C         2.463690         2.158172        -0.602627
 C         1.962828         0.863362        -1.178679
 C         3.187385        -0.022986        -0.785878
 O         2.340266        -1.024633        -0.221367
 H        -0.131054        -1.457568         0.696381
 H        -0.726758         0.056426         0.956424
 H        -0.408137        -0.691191        -0.654084
 H         1.474612         1.435205         1.762700
 H         2.371696        -0.138497         1.983637
 H         4.384222         1.661326         1.882217
 H         1.744816         2.856089        -0.119435
 H         3.187117         2.699600        -1.250244
 H         1.625362         0.967220        -2.182462
 H         4.026612        -0.228046        -1.475032
