19
Iteration:  1097
 C        -0.042625        -0.450141         0.220196
 C         1.322959         0.019447         0.023452
 C         2.064737         0.718821         1.186612
 C         3.307013         1.230644         0.427564
 O         4.448452         1.500878         1.118920
 C         2.779925         2.096012        -0.697570
 C         1.953762         0.847530        -1.089437
 C         3.119472        -0.081664        -0.720023
 O         2.299278        -1.106337        -0.242576
 H        -0.162519        -1.314273         0.948615
 H        -0.573744         0.358144         0.628534
 H        -0.605622        -0.525940        -0.638591
 H         1.455694         1.746470         1.462976
 H         2.046771         0.001681         2.041009
 H         4.381330         1.173575         2.112006
 H         2.155512         2.992954        -0.543488
 H         3.564270         2.078001        -1.508880
 H         1.682783         0.724902        -2.155915
 H         3.987952        -0.360283        -1.388728
