19
Iteration:  2345
 C        -0.050280        -0.477942         0.305323
 C         1.365408        -0.015385         0.060716
 C         2.063768         0.671820         1.262695
 C         3.286155         1.115170         0.417386
 O         4.439212         1.571103         1.081660
 C         2.624719         2.102503        -0.591815
 C         1.947170         0.823670        -1.163766
 C         3.188907         0.036592        -0.801626
 O         2.341029        -1.072405        -0.315960
 H        -0.332354        -0.634901         1.340199
 H        -0.789250         0.359042        -0.131723
 H        -0.207885        -1.409971        -0.226611
 H         1.696117         1.637937         1.677861
 H         2.275595        -0.303178         2.018621
 H         4.858906         0.793897         1.646978
 H         2.141872         3.086556        -0.303845
 H         3.380639         2.507875        -1.347099
 H         1.369477         0.785938        -2.095154
 H         3.969350        -0.121062        -1.511244
