19
Iteration:  4102charge 0 multiplicity 1
 C        -0.086312        -0.470309         0.244868
 C         1.348023        -0.013573         0.115240
 C         2.151548         0.570610         1.228113
 C         3.265037         1.199285         0.422720
 O         4.481379         1.591405         0.965434
 C         2.633423         2.083995        -0.610634
 C         1.950695         0.929241        -1.134068
 C         3.126663        -0.022285        -0.722587
 O         2.336441        -1.114193        -0.267119
 H        -0.565586        -0.267464         1.254659
 H        -0.778605         0.133735        -0.355444
 H        -0.220622        -1.454269        -0.037165
 H         1.666860         1.269703         1.966552
 H         2.687798        -0.262983         1.764259
 H         4.483850         1.584130         1.890837
 H         1.974706         2.952582        -0.539487
 H         3.508575         2.407023        -1.198827
 H         1.425658         0.678167        -2.083921
 H         4.021484        -0.242129        -1.176126
