19
Iteration:  2858charge 0 multiplicity 1
 C        -0.160266        -0.449770         0.209221
 C         1.409257        -0.055318         0.075194
 C         2.099661         0.588381         1.303043
 C         3.277275         1.221336         0.430873
 O         4.513606         1.519363         0.959951
 C         2.601280         2.130656        -0.587363
 C         1.897371         0.849723        -1.128025
 C         3.114718         0.091197        -0.754272
 O         2.413913        -1.108448        -0.284308
 H        -0.285945        -1.454707         0.630364
 H        -0.474853         0.188185         1.128716
 H        -0.566087        -0.563650        -0.785739
 H         1.451634         1.321607         1.973081
 H         2.420349        -0.050616         2.009039
 H         4.480405         1.361480         1.840309
 H         2.113891         3.128044        -0.357107
 H         3.563554         2.279031        -1.204136
 H         1.462393         0.658067        -2.140808
 H         4.082278        -0.199141        -1.308303
