19
Iteration:  2953
 C        -0.071824        -0.531316         0.198906
 C         1.393519        -0.048885         0.104424
 C         2.075914         0.728261         1.288377
 C         3.252289         1.136689         0.349299
 O         4.512272         1.489627         1.018865
 C         2.589024         2.154368        -0.523916
 C         1.908263         0.941991        -1.124775
 C         3.120095        -0.007142        -0.795529
 O         2.431356        -1.066801        -0.295004
 H        -0.328421        -0.739569         1.228673
 H        -0.684974         0.373359         0.054852
 H        -0.137841        -1.459518        -0.396902
 H         1.410696         1.513504         1.587787
 H         2.105494         0.152521         2.379849
 H         4.840688         0.613415         1.392093
 H         2.000159         2.893339         0.080538
 H         3.111575         2.796522        -1.258734
 H         1.364971         0.714033        -2.064050
 H         3.976111        -0.351715        -1.365815
