19
Iteration:   554charge 0 multiplicity 1
 C        -0.103661        -0.383378         0.217550
 C         1.321746         0.045934         0.059606
 C         2.119111         0.629410         1.252389
 C         3.294100         1.092874         0.446310
 O         4.394558         1.389011         1.193418
 C         2.717537         2.151003        -0.776242
 C         2.033439         0.863183        -1.245723
 C         3.195286        -0.061672        -0.747563
 O         2.281705        -1.025040        -0.204199
 H        -0.156354        -1.165724         0.908239
 H        -0.755678         0.373323         0.616788
 H        -0.545598        -0.973804        -0.695812
 H         1.781206         1.458748         1.650814
 H         2.242950        -0.070427         2.022181
 H         4.279497         2.380777         1.451399
 H         2.153299         3.082662        -0.538459
 H         3.647355         2.487877        -1.245455
 H         1.466222         0.748296        -2.112589
 H         4.092239        -0.445341        -1.169804
