19
Iteration:   929
 C        -0.078917        -0.431115         0.074319
 C         1.329873         0.067936         0.086932
 C         2.045123         0.729732         1.285108
 C         3.248894         1.192178         0.415088
 O         4.507299         1.287525         1.031498
 C         2.641648         2.062017        -0.711931
 C         1.977036         0.836994        -1.199661
 C         3.158206        -0.008736        -0.667784
 O         2.377551        -0.983737        -0.100362
 H        -0.128613        -1.187945         0.812593
 H        -0.850522         0.329104         0.412472
 H        -0.414824        -0.984231        -0.833070
 H         1.366244         1.607557         1.804589
 H         2.270955        -0.042976         2.075346
 H         4.678853         2.098411         1.681818
 H         1.978770         2.870007        -0.366819
 H         3.558649         2.326998        -1.259427
 H         1.519734         0.734215        -2.139560
 H         3.961825        -0.249898        -1.281255
