19
Iteration:  3677
 C        -0.067654        -0.495785         0.316153
 C         1.373714        -0.019259         0.051587
 C         2.085604         0.703049         1.272210
 C         3.274188         1.200482         0.436397
 O         4.437811         1.572764         1.070331
 C         2.680850         2.050698        -0.661705
 C         1.960450         0.840899        -1.174801
 C         3.155259        -0.064201        -0.736437
 O         2.321376        -1.114626        -0.292797
 H        -0.124939        -1.645009         0.766815
 H        -0.597041         0.160331         1.093468
 H        -0.567624        -0.572485        -0.706991
 H         1.482292         1.527689         1.689625
 H         2.408826         0.100824         2.046761
 H         4.589296         2.480792         1.009566
 H         2.206430         2.975037        -0.255716
 H         3.439022         2.350347        -1.443975
 H         1.460607         0.892519        -2.199530
 H         3.964107        -0.440930        -1.292558
