19
Iteration:   334charge 0 multiplicity 1
 C        -0.120599        -0.387613        -0.018888
 C         1.373370         0.065173         0.060055
 C         2.053214         0.686302         1.304179
 C         3.306162         1.138771         0.433408
 O         4.513298         1.434928         1.001337
 C         2.584255         2.145736        -0.615339
 C         2.074492         0.761029        -1.137302
 C         3.187112         0.034635        -0.613042
 O         2.235693        -1.017538        -0.085468
 H        -0.243880        -1.400408         0.385769
 H        -0.914261         0.186189         0.424370
 H        -0.231109        -0.484815        -1.107481
 H         1.431516         1.640234         1.674467
 H         2.341210        -0.073499         2.122270
 H         5.082080         0.567144         0.859932
 H         1.839009         2.854922        -0.224131
 H         3.411662         2.492181        -1.251416
 H         1.615035         0.375105        -2.109406
 H         4.144057        -0.399790        -1.186340
