19
Iteration:  1861charge 0 multiplicity 1
 C        -0.028904        -0.539216         0.123086
 C         1.326595        -0.000493         0.027385
 C         2.167301         0.805996         1.278179
 C         3.296655         1.159566         0.406403
 O         4.519316         1.456259         1.022129
 C         2.563792         2.160767        -0.604894
 C         1.950083         0.855033        -1.190894
 C         3.127702        -0.045505        -0.678403
 O         2.294500        -1.073073        -0.185924
 H        -0.008874        -1.497355         0.555053
 H        -0.585573         0.155626         0.651160
 H        -0.548138        -0.540771        -0.833345
 H         1.763373         1.773594         1.754268
 H         2.375410         0.134572         2.264563
 H         4.543800         1.114759         1.878930
 H         1.863944         2.702419        -0.014598
 H         3.164133         2.712809        -1.290361
 H         1.462303         0.586894        -2.219638
 H         4.068729        -0.271752        -1.271327
