19
Iteration:  3982charge 0 multiplicity 1
 C        -0.092452        -0.388590         0.210100
 C         1.396544        -0.055244         0.079022
 C         2.098547         0.712420         1.270155
 C         3.289781         1.133642         0.335717
 O         4.518737         1.640991         0.994226
 C         2.553628         2.098379        -0.540198
 C         1.923279         0.814734        -1.180869
 C         3.177503        -0.050625        -0.744329
 O         2.377135        -1.141155        -0.212902
 H        -0.246323        -1.431031         0.644400
 H        -0.635193         0.000681         1.036574
 H        -0.589453        -0.459868        -0.773742
 H         1.518509         1.563463         1.540725
 H         2.309130         0.135400         2.084897
 H         4.539579         1.087306         1.880811
 H         1.919939         2.888626        -0.143543
 H         3.269973         2.498750        -1.290816
 H         1.408502         0.686881        -2.127114
 H         3.973933        -0.384889        -1.325408
