19
Iteration:  1910charge 0 multiplicity 1
 C        -0.076170        -0.431757         0.137048
 C         1.401085        -0.117864         0.123369
 C         2.069619         0.760132         1.275873
 C         3.294949         1.167725         0.402856
 O         4.465459         1.548983         0.965665
 C         2.643909         2.060148        -0.516126
 C         1.924456         0.866983        -1.109213
 C         3.168652        -0.002786        -0.771161
 O         2.358956        -1.119718        -0.269064
 H        -0.228903        -0.976534         1.146734
 H        -0.714106         0.540489         0.046563
 H        -0.488952        -1.122714        -0.617694
 H         1.304929         1.523622         1.768241
 H         2.261694         0.130394         2.080775
 H         4.503153         1.110552         1.896950
 H         2.074175         2.950632        -0.122625
 H         3.419015         2.374952        -1.289882
 H         1.438786         0.932022        -2.041101
 H         4.083700        -0.209124        -1.343417
