19
Iteration:  3964charge 0 multiplicity 1
 C        -0.098659        -0.424413         0.251933
 C         1.393947        -0.006920         0.062222
 C         2.115625         0.604858         1.228664
 C         3.248761         1.196702         0.455914
 O         4.450116         1.550527         0.970272
 C         2.597892         2.099927        -0.710831
 C         1.951034         0.780132        -1.125992
 C         3.175459         0.023440        -0.732660
 O         2.395629        -1.108860        -0.205680
 H        -0.381742        -1.464186         0.552917
 H        -0.350680         0.259902         1.140226
 H        -0.558738        -0.003723        -0.609969
 H         1.592577         1.364953         1.998959
 H         2.421489        -0.255746         1.935443
 H         4.421234         1.637401         1.999403
 H         1.848857         2.832428        -0.313512
 H         3.247098         2.594198        -1.444037
 H         1.521035         0.599756        -2.110227
 H         4.059525        -0.163688        -1.352668
