19
Iteration:   176charge 0 multiplicity 1
 C        -0.094660        -0.399953        -0.068473
 C         1.335384         0.051636         0.146878
 C         2.074855         0.755853         1.275450
 C         3.322787         1.137061         0.362884
 O         4.553907         1.346838         0.980049
 C         2.616003         2.116158        -0.601113
 C         2.037638         0.903676        -1.108296
 C         3.171328        -0.115495        -0.645573
 O         2.256891        -1.079238        -0.086798
 H        -0.427574        -1.142180         0.581856
 H        -0.669718         0.526887         0.158013
 H        -0.214800        -0.799259        -1.045055
 H         1.569813         1.633210         1.563140
 H         2.187028         0.131042         2.104722
 H         4.254963         1.978025         1.709425
 H         1.924096         2.825283        -0.142248
 H         3.349850         2.566486        -1.248176
 H         1.448874         0.946024        -2.055735
 H         4.008193        -0.589028        -1.067441
