19
Iteration:  2058charge 0 multiplicity 1
 C        -0.108939        -0.478726         0.254979
 C         1.380235        -0.053392         0.042893
 C         2.054141         0.776276         1.230685
 C         3.303044         1.172918         0.412747
 O         4.491292         1.562249         1.046316
 C         2.656865         2.124340        -0.613631
 C         1.936374         0.832872        -1.086976
 C         3.150897        -0.010544        -0.748806
 O         2.386491        -1.177468        -0.323609
 H        -0.383031        -1.530470         0.579308
 H        -0.617435         0.254662         0.972605
 H        -0.628387        -0.427506        -0.776405
 H         1.542534         1.663409         1.366211
 H         2.138064         0.122946         2.257139
 H         4.363154         1.198959         1.979145
 H         2.141739         2.918000        -0.039234
 H         3.435417         2.637495        -1.180621
 H         1.455303         0.648435        -2.051583
 H         4.001101        -0.254329        -1.391618
