19
Iteration:   864
 C        -0.127173        -0.458145         0.130576
 C         1.336590        -0.006090         0.032667
 C         2.047607         0.718196         1.301499
 C         3.266009         1.170829         0.426896
 O         4.492501         1.418594         1.011535
 C         2.759756         2.139013        -0.713020
 C         1.975241         0.853862        -1.221932
 C         3.180871        -0.013797        -0.597776
 O         2.281644        -1.088508        -0.158738
 H        -0.018291        -1.222172         0.833563
 H        -0.649369         0.408204         0.587556
 H        -0.674142        -0.634432        -0.778544
 H         1.469623         1.546658         1.766447
 H         2.383337        -0.036749         2.025107
 H         4.308230         1.970346         1.780366
 H         2.187621         2.991439        -0.277249
 H         3.635194         2.356477        -1.374974
 H         1.662023         0.623062        -2.205585
 H         3.999445        -0.381157        -1.122113
