19
Iteration:  3010
 C        -0.108383        -0.463515         0.250362
 C         1.434908        -0.098227         0.125550
 C         2.112776         0.641279         1.272015
 C         3.273361         1.165790         0.440726
 O         4.481222         1.531329         0.945012
 C         2.617891         2.107512        -0.528462
 C         1.908177         0.894893        -1.068852
 C         3.150867         0.051720        -0.775508
 O         2.363894        -1.121224        -0.333865
 H        -0.231899        -1.109538         1.078477
 H        -0.725463         0.465712         0.076428
 H        -0.340836        -0.860712        -0.685984
 H         1.418091         1.470837         1.559385
 H         2.335588        -0.174087         2.089543
 H         4.385139         1.670900         1.853446
 H         2.110405         3.036644        -0.155655
 H         3.376330         2.390255        -1.309796
 H         1.537100         0.836822        -2.086063
 H         3.900197        -0.131109        -1.602503
