19
Iteration:  4115
 C        -0.092599        -0.435777         0.203873
 C         1.380306        -0.015419         0.091237
 C         2.162674         0.581720         1.397016
 C         3.261949         1.186498         0.452852
 O         4.507145         1.636996         0.968151
 C         2.667955         2.145563        -0.658032
 C         1.898224         0.810046        -1.127092
 C         3.134600        -0.079059        -0.778599
 O         2.313355        -1.118740        -0.315583
 H        -0.332780        -0.416391         1.364019
 H        -0.735895         0.220627        -0.489318
 H        -0.143152        -1.475343        -0.038973
 H         1.435738         1.323096         1.925286
 H         2.435813        -0.253435         1.974432
 H         4.357803         1.798622         1.972402
 H         2.197180         2.970994        -0.079099
 H         3.370475         2.481237        -1.440944
 H         1.316987         0.877252        -2.117089
 H         3.973065        -0.385975        -1.307316
