19
Iteration:  2933charge 0 multiplicity 1
 C        -0.033239        -0.542930         0.233673
 C         1.374777        -0.044343         0.084595
 C         2.029409         0.687438         1.226906
 C         3.197164         1.157480         0.438509
 O         4.514696         1.488015         1.006464
 C         2.628702         2.130795        -0.572769
 C         1.885011         0.852905        -1.064010
 C         3.154595         0.125161        -0.749854
 O         2.382099        -1.093461        -0.288142
 H        -0.193702        -0.983052         1.239413
 H        -0.697984         0.496524         0.183542
 H        -0.180471        -1.232848        -0.631800
 H         1.497524         1.472774         1.754266
 H         2.231843         0.005923         2.071957
 H         5.110700         0.626815         1.142646
 H         2.191995         3.159936        -0.482780
 H         3.460879         2.404600        -1.284455
 H         1.317768         0.928400        -2.015357
 H         4.031064         0.164491        -1.445984
