19
Iteration:   470
 C        -0.021983        -0.486029        -0.036024
 C         1.370701        -0.000033         0.084057
 C         2.058281         0.762535         1.262941
 C         3.330403         1.133096         0.398129
 O         4.608073         1.338675         1.030052
 C         2.597511         2.149751        -0.652847
 C         1.940010         0.880688        -1.114767
 C         3.106026        -0.023319        -0.609580
 O         2.234922        -1.050949        -0.102262
 H        -0.254274        -1.267443         0.702521
 H        -0.772819         0.351364         0.053815
 H        -0.185475        -0.765249        -1.057166
 H         1.415283         1.743255         1.619138
 H         2.354614         0.083481         2.103001
 H         4.531331         1.831390         1.811677
 H         1.993702         2.986298        -0.250223
 H         3.355753         2.408220        -1.426491
 H         1.502364         1.108699        -2.077566
 H         3.960892        -0.338722        -1.112766
