19
Iteration:  2479
 C        -0.017732        -0.584285         0.278843
 C         1.334713         0.013642         0.060179
 C         2.089104         0.631132         1.188502
 C         3.235601         1.207366         0.439587
 O         4.427950         1.512323         1.028104
 C         2.688890         2.172135        -0.681436
 C         1.906216         0.933995        -1.137123
 C         3.191288         0.018399        -0.705409
 O         2.298607        -1.025539        -0.229198
 H        -0.175899        -1.506859         0.868024
 H        -0.466212         0.095616         0.904627
 H        -0.486761        -0.711398        -0.689509
 H         1.691812         1.359248         1.837736
 H         2.411605        -0.376691         1.752061
 H         4.810380         0.651771         1.535783
 H         2.144859         3.114413        -0.426228
 H         3.609940         2.190943        -1.260287
 H         1.553828         0.636774        -2.111168
 H         4.094450        -0.182612        -1.324739
