19
Iteration:  3152charge 0 multiplicity 1
 C        -0.117256        -0.435657         0.233472
 C         1.376962        -0.095505         0.114113
 C         2.092968         0.632749         1.290515
 C         3.256492         1.155639         0.393076
 O         4.515186         1.433405         0.958677
 C         2.520653         2.137617        -0.529911
 C         1.896446         0.892248        -1.123494
 C         3.160796         0.041511        -0.739933
 O         2.484506        -1.085316        -0.307268
 H        -0.225852        -0.778185         1.231132
 H        -0.642542         0.466404        -0.058814
 H        -0.470553        -1.151420        -0.493087
 H         1.466953         1.424387         1.683746
 H         2.389268        -0.248479         2.018522
 H         4.520086         2.238365         1.405091
 H         1.910790         2.933232        -0.129561
 H         3.272404         2.469319        -1.232242
 H         1.381835         0.960567        -2.048542
 H         4.122034        -0.081395        -1.268668
