19
Iteration:  1825charge 0 multiplicity 1
 C        -0.069423        -0.504083         0.206061
 C         1.351579        -0.051992         0.009611
 C         2.018744         0.667913         1.266277
 C         3.263328         1.177030         0.470512
 O         4.476422         1.555251         1.037374
 C         2.769437         2.136314        -0.663992
 C         1.904864         0.860342        -1.146889
 C         3.087933         0.016000        -0.710098
 O         2.358412        -1.074219        -0.227685
 H        -0.162100        -1.417837         0.839054
 H        -0.362224         0.299446         0.875484
 H        -0.707636        -0.634341        -0.629507
 H         1.490646         1.478746         1.656584
 H         2.217135        -0.169953         2.071494
 H         4.758126         0.831820         1.528296
 H         2.316481         3.124674        -0.510105
 H         3.562642         2.392249        -1.399748
 H         1.488639         0.795762        -2.160640
 H         4.078488        -0.255374        -1.216822
