19
Iteration:   872charge 0 multiplicity 1
 C        -0.080402        -0.477389         0.105760
 C         1.326261         0.003200         0.010276
 C         2.056899         0.793494         1.345649
 C         3.222419         1.117117         0.424226
 O         4.542792         1.423180         1.005885
 C         2.726736         2.096311        -0.669973
 C         1.945783         0.852145        -1.234310
 C         3.170505        -0.016947        -0.642508
 O         2.296000        -1.089936        -0.119316
 H        -0.215635        -1.351604         0.718147
 H        -0.662542         0.332015         0.652603
 H        -0.605724        -0.621600        -0.969170
 H         1.376057         1.777108         1.653517
 H         2.013776        -0.092326         2.140049
 H         4.564369         1.958069         1.754335
 H         2.466959         3.085762        -0.275993
 H         3.551008         2.468051        -1.266633
 H         1.505608         0.713687        -2.267523
 H         4.126098        -0.269387        -1.204990
