19
Iteration:  4525
 C        -0.076929        -0.601760         0.317388
 C         1.342198        -0.033502         0.114603
 C         2.107762         0.644213         1.259610
 C         3.253403         1.176768         0.377715
 O         4.503635         1.528988         1.015951
 C         2.714939         2.162949        -0.583298
 C         1.968722         0.943306        -1.204225
 C         3.085848         0.057151        -0.743965
 O         2.244771        -1.060592        -0.273295
 H        -0.941430        -0.139219        -0.230312
 H        -0.001763        -1.547914        -0.282970
 H        -0.323599        -0.894726         1.346608
 H         1.649304         1.480283         1.810173
 H         2.638901        -0.066984         2.023100
 H         5.078616         0.668492         1.228272
 H         2.284552         3.035956        -0.074983
 H         3.320674         2.652943        -1.409039
 H         1.565064         0.985037        -2.198352
 H         3.953826        -0.095305        -1.361600
