19
Iteration:  3587
 C        -0.078518        -0.589634         0.216788
 C         1.319884        -0.046970         0.034348
 C         2.117724         0.705344         1.343004
 C         3.237124         1.163410         0.439443
 O         4.463388         1.452622         0.971677
 C         2.587659         2.212536        -0.663167
 C         1.945716         0.904792        -1.181614
 C         3.176918         0.072230        -0.714377
 O         2.399549        -1.037355        -0.156344
 H        -0.645935        -0.666788         1.253237
 H        -0.900125         0.040586        -0.126034
 H        -0.084126        -1.560671        -0.447307
 H         1.716300         1.484450         2.024866
 H         2.446619        -0.033096         1.905534
 H         4.946902         0.692467         0.840892
 H         2.017303         3.097049        -0.271561
 H         3.421082         2.510493        -1.362993
 H         1.421796         0.718920        -2.114022
 H         4.132054        -0.226428        -1.249815
