19
Iteration:  1602charge 0 multiplicity 1
 C        -0.112738        -0.468337         0.071424
 C         1.362961         0.026868         0.156377
 C         2.081386         0.657250         1.352165
 C         3.239535         1.166268         0.406147
 O         4.510315         1.491249         0.945022
 C         2.668773         2.099941        -0.636595
 C         1.971710         0.848531        -1.100066
 C         3.146020         0.035824        -0.727441
 O         2.345085        -1.101978        -0.209722
 H        -0.324960        -1.160087         0.892880
 H        -0.614426         0.533939         0.094357
 H        -0.280524        -0.965484        -0.956172
 H         1.375172         1.493285         1.967905
 H         2.237926        -0.080188         2.205609
 H         4.503817         1.213641         1.826969
 H         2.095806         2.969539        -0.173859
 H         3.576822         2.327439        -1.289797
 H         1.367564         0.842223        -2.028121
 H         4.044906        -0.044982        -1.383624
