19
Iteration:  3321
 C        -0.022203        -0.476129         0.156919
 C         1.399813        -0.044705         0.117341
 C         2.121753         0.674392         1.249266
 C         3.309028         1.169890         0.401261
 O         4.477018         1.609401         0.950066
 C         2.561005         2.124777        -0.483320
 C         1.930085         0.792621        -1.019832
 C         3.184466        -0.031383        -0.786029
 O         2.329289        -1.129766        -0.287768
 H        -0.330404        -1.005802         1.017435
 H        -0.512196         0.579182         0.126518
 H        -0.439507        -1.122631        -0.600977
 H         1.385397         1.636848         1.500356
 H         2.353058         0.139460         2.125215
 H         4.647240         0.993288         1.592493
 H         1.862152         2.916674        -0.098530
 H         3.247476         2.707627        -1.148498
 H         1.256196         1.020602        -1.913296
 H         3.786974        -0.300876        -1.639397
