19
Iteration:   253charge 0 multiplicity 1
 C        -0.044794        -0.372173         0.263960
 C         1.324343         0.073773        -0.020503
 C         2.054166         0.705126         1.183301
 C         3.332989         1.087792         0.393405
 O         4.365450         1.427770         1.317442
 C         2.720668         2.064628        -0.670224
 C         2.033662         0.872648        -1.227134
 C         3.178560        -0.094426        -0.779978
 O         2.264427        -1.033550        -0.211437
 H        -0.139028        -0.809224         1.258229
 H        -0.818728         0.428042         0.058362
 H        -0.277661        -1.220972        -0.414223
 H         1.658178         1.581954         1.612728
 H         2.177198        -0.038066         1.943612
 H         5.055908         1.846769         0.667293
 H         2.049391         2.868963        -0.326844
 H         3.456340         2.501588        -1.355262
 H         1.564374         0.816405        -2.266158
 H         3.952901        -0.579399        -1.387530
