19
Iteration:  3245
 C        -0.001688        -0.568766         0.239618
 C         1.393206        -0.009319         0.130412
 C         2.001643         0.795821         1.262709
 C         3.313888         1.127686         0.421627
 O         4.518942         1.528401         1.008966
 C         2.589701         2.130650        -0.558424
 C         1.899221         0.821436        -1.078866
 C         3.136727         0.020880        -0.875729
 O         2.363963        -1.068722        -0.261190
 H         0.195701        -1.560522         0.632452
 H        -0.746974        -0.001586         0.767892
 H        -0.564271        -0.700251        -0.696370
 H         1.395647         1.875512         1.299495
 H         2.060955         0.296552         2.213374
 H         4.727506         0.639257         1.534220
 H         2.110803         2.988742        -0.034276
 H         3.329363         2.416711        -1.338507
 H         1.411049         0.875962        -2.076468
 H         3.923043        -0.247181        -1.574132
