19
Iteration:  2525charge 0 multiplicity 1
 C        -0.029415        -0.397686         0.195926
 C         1.416346        -0.059438         0.047757
 C         2.140856         0.677848         1.241754
 C         3.305142         1.143602         0.381380
 O         4.494915         1.527515         1.022965
 C         2.540051         2.155506        -0.511733
 C         1.884317         0.886143        -1.140405
 C         3.140707         0.003648        -0.774281
 O         2.354609        -1.143823        -0.264962
 H        -0.252500        -0.907655         1.195820
 H        -0.693043         0.399120         0.178829
 H        -0.206090        -1.220149        -0.531925
 H         1.426694         1.516770         1.607425
 H         2.500323        -0.014552         2.091186
 H         4.508905         1.170244         2.004659
 H         1.916022         2.786607         0.137241
 H         3.125359         2.438584        -1.369843
 H         1.305444         0.970321        -2.114033
 H         3.963406        -0.437100        -1.431083
