19
Iteration:  2104
 C        -0.081131        -0.460245         0.203153
 C         1.330520         0.055859         0.085672
 C         2.119747         0.636278         1.280919
 C         3.242439         1.162882         0.404639
 O         4.410284         1.535460         1.053098
 C         2.646342         2.136763        -0.620934
 C         1.976580         0.810403        -1.205049
 C         3.155114         0.049578        -0.691808
 O         2.357357        -1.083891        -0.260826
 H        -0.141193        -1.206948         1.046098
 H        -0.895543         0.404074         0.492381
 H        -0.399260        -1.119989        -0.652024
 H         1.656483         1.450567         1.917483
 H         2.680165        -0.283846         1.912952
 H         4.976260         0.735026         1.418440
 H         2.069779         3.068276        -0.347854
 H         3.442731         2.419970        -1.346203
 H         1.576541         0.630272        -2.202178
 H         4.028312        -0.256910        -1.207742
