19
Iteration:   852
 C        -0.107716        -0.374949         0.226305
 C         1.320310         0.047067         0.053380
 C         2.054126         0.676341         1.161375
 C         3.255949         1.188927         0.390977
 O         4.464871         1.428612         1.080557
 C         2.701158         2.098925        -0.693656
 C         2.105817         0.805402        -1.122176
 C         3.165867        -0.055798        -0.651322
 O         2.288959        -1.075004        -0.210045
 H        -0.269941        -1.161636         0.846929
 H        -0.844363         0.379586         0.606147
 H        -0.391580        -0.890038        -0.733644
 H         1.473692         1.451943         1.808591
 H         2.453624        -0.127330         1.868065
 H         4.336725         1.981772         1.833657
 H         2.053754         2.999089        -0.689776
 H         3.438854         2.429230        -1.459810
 H         1.616123         0.722948        -2.077984
 H         4.084711        -0.323328        -1.119958
