19
Iteration:  3415
 C         0.014184        -0.596041         0.279238
 C         1.338545         0.003974         0.096894
 C         2.035622         0.686057         1.240855
 C         3.238165         1.206391         0.328650
 O         4.514680         1.308237         1.023816
 C         2.592816         2.218064        -0.607379
 C         1.911424         0.900257        -1.206326
 C         3.144966         0.087263        -0.723651
 O         2.391939        -1.052353        -0.206085
 H        -0.082889        -1.388060         1.034454
 H        -0.782853         0.145211         0.363434
 H        -0.303757        -1.189053        -0.564068
 H         1.559756         1.565212         1.743747
 H         2.310910        -0.102925         2.081344
 H         4.547692         2.244161         1.470105
 H         2.149616         3.064010        -0.106780
 H         3.372718         2.636332        -1.266924
 H         1.353929         0.642843        -2.165818
 H         4.020211        -0.034797        -1.386591
