19
Iteration:  3756charge 0 multiplicity 1
 C         0.008395        -0.555529         0.176462
 C         1.398429        -0.008494         0.123584
 C         2.038284         0.802375         1.249329
 C         3.301623         1.171861         0.379477
 O         4.501596         1.476726         1.050437
 C         2.552951         2.108261        -0.615274
 C         1.874330         0.865486        -1.082123
 C         3.143594        -0.009275        -0.739680
 O         2.364039        -1.088966        -0.200976
 H        -0.422318        -1.205884         1.057847
 H        -0.813372         0.268492         0.138753
 H        -0.220782        -1.047923        -0.746125
 H         1.512761         1.572932         1.644916
 H         2.420616         0.130297         2.068623
 H         5.170515         1.402637         0.440923
 H         1.917817         2.967775        -0.365265
 H         3.338026         2.422793        -1.324027
 H         1.306244         0.856122        -2.011191
 H         4.087302        -0.313291        -1.200145
