19
Iteration:  2531charge 0 multiplicity 1
 C        -0.022829        -0.433336         0.156341
 C         1.377454        -0.015517         0.065451
 C         2.148575         0.618914         1.258770
 C         3.294170         1.177915         0.362043
 O         4.502832         1.525330         0.999247
 C         2.556750         2.118733        -0.516014
 C         1.890552         0.894005        -1.115558
 C         3.126884         0.023848        -0.753256
 O         2.361327        -1.147696        -0.254642
 H        -0.231270        -0.703224         1.185469
 H        -0.678068         0.521534         0.167995
 H        -0.301890        -1.260678        -0.492734
 H         1.642818         1.443345         1.715119
 H         2.411791        -0.120851         1.999767
 H         4.411143         1.117203         1.908635
 H         1.883831         2.914610        -0.124162
 H         3.138040         2.640137        -1.323596
 H         1.354338         0.795943        -2.028572
 H         4.046615        -0.251032        -1.234072
