19
Iteration:  3463
 C        -0.052864        -0.505571         0.146955
 C         1.345043        -0.071510         0.071634
 C         2.097704         0.751750         1.240931
 C         3.315942         1.087862         0.444445
 O         4.579159         1.526462         0.920804
 C         2.590821         2.139438        -0.538763
 C         1.881515         0.872993        -1.070136
 C         3.110631        -0.000879        -0.719587
 O         2.399922        -1.117979        -0.199698
 H        -0.113783        -1.583423         0.307013
 H        -0.726160         0.035438         0.952129
 H        -0.642184        -0.491790        -0.800392
 H         1.496115         1.550178         1.459583
 H         2.151125         0.200200         2.079699
 H         4.316261         1.981325         1.662899
 H         1.842814         2.862213        -0.159221
 H         3.179569         2.683620        -1.278012
 H         1.397277         0.854195        -2.084406
 H         3.938340        -0.168191        -1.394961
