19
Iteration:   944
 C        -0.057022        -0.394672         0.183805
 C         1.337897         0.038747         0.045548
 C         1.928437         0.705385         1.271038
 C         3.262052         1.092481         0.396019
 O         4.488397         1.375195         1.029227
 C         2.743816         2.154742        -0.657230
 C         1.990458         0.822188        -1.145241
 C         3.200835         0.037377        -0.692602
 O         2.339805        -1.104729        -0.175744
 H        -0.313456        -1.025246         1.151358
 H        -0.658263         0.481625         0.291779
 H        -0.246130        -1.039789        -0.636161
 H         1.419782         1.553343         1.637004
 H         2.110555        -0.057882         1.982776
 H         4.299747         2.132993         1.563502
 H         2.251545         3.149381        -0.414543
 H         3.326313         2.536181        -1.537063
 H         1.488343         0.568795        -2.132136
 H         4.153597        -0.355537        -1.188387
