19
Iteration:  2703
 C        -0.067521        -0.461669         0.159759
 C         1.393492        -0.016416         0.147255
 C         2.109137         0.573713         1.350896
 C         3.208755         1.172462         0.439852
 O         4.459911         1.504734         0.920019
 C         2.638770         2.116922        -0.593255
 C         1.929982         0.857092        -1.156481
 C         3.131807         0.082528        -0.752085
 O         2.388918        -1.059817        -0.231847
 H        -0.136452        -1.231406         0.891859
 H        -0.738132         0.388223         0.351340
 H        -0.532778        -0.709084        -0.764557
 H         1.521288         1.455258         1.983417
 H         2.578645        -0.273520         1.734767
 H         4.754558         0.963342         1.768829
 H         1.997596         2.979713        -0.474033
 H         3.562748         2.495725        -1.071994
 H         1.298554         0.666427        -1.984828
 H         3.937995         0.008425        -1.411537
