19
Iteration:   428charge 0 multiplicity 1
 C        -0.064787        -0.422759         0.241184
 C         1.346597        -0.047443         0.029607
 C         1.991143         0.689659         1.195984
 C         3.250964         1.148974         0.429616
 O         4.450023         1.343582         1.080915
 C         2.713258         2.107044        -0.663549
 C         1.981187         0.975144        -1.237405
 C         3.211004         0.025742        -0.677495
 O         2.364806        -1.055745        -0.203065
 H        -0.345992        -0.497824         1.351780
 H        -0.716825         0.467259        -0.097445
 H        -0.444060        -1.230085        -0.304624
 H         1.555919         1.587342         1.616698
 H         2.224400        -0.057493         1.961855
 H         4.207477         1.468102         1.979669
 H         2.137701         2.941960        -0.271977
 H         3.473571         2.284632        -1.423148
 H         1.573258         0.784532        -2.315516
 H         4.106040        -0.319940        -1.172220
