19
Iteration:  3219charge 0 multiplicity 1
 C        -0.031661        -0.588167         0.213557
 C         1.360684        -0.028013         0.117111
 C         2.079868         0.660705         1.258717
 C         3.272171         1.170615         0.374188
 O         4.539014         1.504529         0.932359
 C         2.627104         2.171463        -0.612767
 C         1.885008         0.907591        -1.108730
 C         3.116427         0.069197        -0.702139
 O         2.349093        -1.084236        -0.232557
 H        -0.072780        -1.368420         0.945753
 H        -0.807967         0.191878         0.439869
 H        -0.459224        -0.833664        -0.698114
 H         1.609996         1.478426         1.792844
 H         2.441771        -0.208514         1.965844
 H         4.220936         1.257404         1.904366
 H         2.138141         2.997165        -0.120424
 H         3.437098         2.458210        -1.285710
 H         1.497810         0.882022        -2.166419
 H         4.029683        -0.182412        -1.271990
