19
Iteration:  1238charge 0 multiplicity 1
 C        -0.059751        -0.384205         0.283630
 C         1.333595         0.061106         0.033824
 C         2.005260         0.768561         1.217036
 C         3.254365         1.118871         0.427575
 O         4.411579         1.465032         1.096791
 C         2.741561         2.099711        -0.682098
 C         1.958743         0.816438        -1.178383
 C         3.145154        -0.025528        -0.649294
 O         2.406829        -1.114773        -0.328119
 H        -0.071419        -1.283097         1.050920
 H        -0.614548         0.431011         0.713438
 H        -0.564596        -0.555665        -0.642514
 H         1.385866         1.526162         1.761608
 H         2.270314         0.065285         1.894515
 H         4.530328         0.819195         1.845455
 H         2.230356         3.017281        -0.422989
 H         3.579631         2.240549        -1.381647
 H         1.474691         0.692176        -2.175764
 H         4.095107        -0.260185        -1.185811
