19
Iteration:  2359charge 0 multiplicity 1
 C        -0.081989        -0.452462         0.259345
 C         1.383906        -0.055366         0.014306
 C         2.108885         0.791715         1.234662
 C         3.320934         1.146751         0.419123
 O         4.470111         1.602268         1.093682
 C         2.622482         2.078179        -0.501896
 C         1.907005         0.867365        -1.126471
 C         3.141910        -0.045085        -0.854823
 O         2.363751        -1.151835        -0.354493
 H        -0.213619        -0.524924         1.424950
 H        -0.827376         0.314029        -0.039649
 H        -0.333322        -1.463747        -0.192596
 H         1.391815         1.523499         1.562472
 H         2.366601         0.127363         2.245598
 H         4.665414         0.963055         1.682400
 H         1.930381         2.644939         0.105311
 H         3.327932         2.521351        -1.212258
 H         1.472526         0.848801        -2.104933
 H         4.001625        -0.375867        -1.450251
