19
Iteration:  4432
 C        -0.068234        -0.473061         0.170969
 C         1.377438        -0.038473         0.086791
 C         2.174394         0.637758         1.329303
 C         3.289378         1.113153         0.434848
 O         4.542083         1.565543         0.920046
 C         2.561653         2.139480        -0.534001
 C         1.929176         0.851735        -1.080516
 C         3.184195        -0.019144        -0.801465
 O         2.244669        -1.118473        -0.274966
 H        -0.665688         0.383260         0.548142
 H        -0.396715        -0.764886        -0.847867
 H        -0.060930        -1.313020         0.841649
 H         1.611710         1.571715         1.684404
 H         2.380313         0.002852         2.174614
 H         4.422075         1.900414         1.759678
 H         2.064501         2.987378        -0.010861
 H         3.288319         2.681405        -1.142581
 H         1.301178         1.054778        -2.045548
 H         4.050393        -0.446269        -1.373373
