19
Iteration:  4683charge 0 multiplicity 1
 C        -0.001432        -0.552609         0.273228
 C         1.404633         0.019743         0.131884
 C         2.108224         0.747954         1.214356
 C         3.257433         1.161575         0.424388
 O         4.508242         1.200784         0.936762
 C         2.571775         2.238690        -0.603541
 C         1.814318         0.880070        -1.180529
 C         3.094616         0.144840        -0.754599
 O         2.435928        -1.028776        -0.187640
 H        -0.787285         0.169157         0.391149
 H        -0.099341        -1.182907        -0.593439
 H        -0.160982        -1.060666         1.213929
 H         1.550366         1.602846         1.641687
 H         2.351706         0.052272         1.923743
 H         4.364788         1.604100         1.795791
 H         1.864346         3.090959        -0.523465
 H         3.331542         2.550384        -1.281075
 H         1.442153         0.673049        -2.170716
 H         4.003653        -0.185200        -1.260400
