19
Iteration:  2980
 C        -0.031316        -0.502561         0.181883
 C         1.373837         0.023764         0.028476
 C         2.203910         0.614629         1.272054
 C         3.273874         1.175758         0.391663
 O         4.535828         1.494844         1.001116
 C         2.536604         2.113466        -0.545667
 C         1.870976         0.895983        -1.159097
 C         3.098198         0.076780        -0.712497
 O         2.330368        -1.073056        -0.223785
 H        -0.154248        -0.784651         1.290949
 H        -0.832360         0.297913        -0.163230
 H        -0.068721        -1.374705        -0.506059
 H         1.677422         1.296360         1.982412
 H         2.455390        -0.198690         1.759443
 H         4.504233         1.027405         1.889997
 H         1.984465         2.920463        -0.075722
 H         3.139119         2.632656        -1.294269
 H         1.598496         0.670898        -2.184671
 H         3.883085        -0.249514        -1.432992
