19
Iteration:  4936charge 0 multiplicity 1
 C        -0.092117        -0.364918         0.269149
 C         1.426471        -0.028571         0.127593
 C         2.145399         0.593929         1.317073
 C         3.248975         1.114150         0.410337
 O         4.519804         1.532591         0.999205
 C         2.549643         2.104705        -0.500561
 C         1.923662         0.851032        -1.151097
 C         3.093076        -0.013807        -0.849105
 O         2.416985        -1.110876        -0.349395
 H        -0.778977         0.449688         0.474060
 H        -0.412000        -0.937573        -0.591291
 H        -0.284655        -1.027726         1.226009
 H         1.448610         1.329997         1.907474
 H         2.430798        -0.195498         2.087617
 H         4.703204         2.558246         1.034868
 H         1.988689         2.896949         0.124321
 H         3.179225         2.460052        -1.336926
 H         1.193885         0.697602        -2.034947
 H         3.966633        -0.308699        -1.586061
