19
Iteration:  2213charge 0 multiplicity 1
 C        -0.033844        -0.458038         0.315823
 C         1.435413        -0.047310         0.071982
 C         2.008490         0.737746         1.183251
 C         3.315774         1.082391         0.358109
 O         4.423607         1.634084         1.099114
 C         2.686090         2.096165        -0.529481
 C         1.933948         0.848687        -1.146811
 C         3.177620         0.004053        -0.877996
 O         2.311364        -1.192282        -0.282826
 H        -0.142561        -1.296717         0.990782
 H        -0.523108         0.553159         0.577431
 H        -0.603065        -0.616241        -0.597916
 H         1.463091         1.550785         1.488184
 H         2.114764         0.203468         2.192265
 H         4.685578         0.973435         1.837614
 H         2.008868         2.856506        -0.028654
 H         3.385594         2.647257        -1.200349
 H         1.488993         0.902501        -2.147936
 H         4.039377        -0.255471        -1.487564
