19
Iteration:  3324
 C        -0.051204        -0.468952         0.149860
 C         1.398836        -0.038430         0.123757
 C         2.123811         0.672067         1.240370
 C         3.304070         1.173799         0.413703
 O         4.486095         1.611615         0.944677
 C         2.569351         2.116558        -0.499929
 C         1.933131         0.790519        -1.024987
 C         3.166331        -0.034815        -0.794174
 O         2.333843        -1.111265        -0.285803
 H        -0.376754        -0.938404         1.104778
 H        -0.423558         0.477989         0.124565
 H        -0.282418        -1.220184        -0.643373
 H         1.375564         1.605117         1.557808
 H         2.393739         0.032059         2.113041
 H         4.667470         1.016653         1.779640
 H         1.882220         2.848954        -0.042574
 H         3.184768         2.738272        -1.141184
 H         1.344139         0.944962        -1.829439
 H         3.746974        -0.285132        -1.685810
