19
Iteration:  2496charge 0 multiplicity 1
 C        -0.039082        -0.510160         0.286031
 C         1.366733         0.006301         0.060257
 C         2.084308         0.690383         1.284396
 C         3.292086         1.145768         0.375149
 O         4.468393         1.538944         1.080477
 C         2.668716         2.136467        -0.617701
 C         1.926001         0.867515        -1.169578
 C         3.106397         0.041375        -0.765801
 O         2.364158        -1.111668        -0.324240
 H         0.201787        -1.324851         0.971271
 H        -0.818047         0.310636         0.716103
 H        -0.614830        -0.866266        -0.595906
 H         1.441716         1.547550         1.717871
 H         2.337378         0.060287         2.069735
 H         4.567498         0.847415         1.845827
 H         1.996892         2.874730        -0.132116
 H         3.353457         2.291808        -1.506989
 H         1.345766         0.911917        -2.104988
 H         3.967049        -0.261851        -1.331742
