19
Iteration:  4297charge 0 multiplicity 1
 C        -0.053562        -0.398701         0.232944
 C         1.387896        -0.026196         0.087222
 C         2.095285         0.673942         1.268565
 C         3.293660         1.149263         0.385391
 O         4.558280         1.527723         0.982610
 C         2.557863         2.164618        -0.583141
 C         1.915232         0.756700        -1.195328
 C         3.151987         0.013143        -0.761471
 O         2.367611        -1.110623        -0.184964
 H        -0.482423        -0.945095         1.074888
 H        -0.732396         0.407923         0.028098
 H        -0.257128        -0.960265        -0.709188
 H         1.598638         1.416995         1.813623
 H         2.352609        -0.143710         1.995684
 H         4.279428         1.496484         1.897249
 H         1.884528         2.834501        -0.048642
 H         3.118990         2.686276        -1.376664
 H         1.279816         0.582154        -2.090410
 H         3.931798        -0.287566        -1.371585
