19
Iteration:  4986charge 0 multiplicity 1
 C         0.014445        -0.605788         0.263935
 C         1.359112         0.013172         0.146312
 C         2.129781         0.742827         1.262723
 C         3.201524         1.149499         0.409304
 O         4.503446         1.417336         1.060361
 C         2.578587         2.120573        -0.617315
 C         1.861376         0.941177        -1.088476
 C         3.109360         0.034338        -0.840741
 O         2.377620        -1.027601        -0.263642
 H        -0.722013         0.046140         0.803551
 H        -0.398277        -0.838116        -0.754501
 H         0.094746        -1.533517         0.736922
 H         1.796183         1.597462         1.791511
 H         2.373101        -0.020681         1.950389
 H         5.112767         1.124197         0.372887
 H         1.914984         2.941586        -0.314393
 H         3.411144         2.567646        -1.221457
 H         1.222039         1.088323        -1.937038
 H         4.002897        -0.202031        -1.410287
