19
Iteration:  1643
 C        -0.106566        -0.456513         0.203878
 C         1.354229         0.034521         0.058528
 C         2.025362         0.739238         1.281078
 C         3.322127         1.130753         0.394777
 O         4.464469         1.525913         1.071193
 C         2.649986         2.151315        -0.581467
 C         1.997063         0.821346        -1.218486
 C         3.176958        -0.041093        -0.777697
 O         2.321878        -1.073921        -0.187324
 H        -0.119510        -1.531663         0.620433
 H        -0.781445         0.059572         0.876580
 H        -0.421399        -0.567441        -0.882637
 H         1.584946         1.578652         1.825423
 H         2.276698         0.018440         1.974406
 H         4.774422         0.647280         1.443870
 H         2.036972         2.930488        -0.094233
 H         3.314756         2.587172        -1.365754
 H         1.607982         0.690075        -2.304583
 H         4.071818        -0.436377        -1.372390
