19
Iteration:  4379
 C         0.012551        -0.507634         0.289916
 C         1.347420         0.029652         0.114911
 C         2.075385         0.717229         1.211628
 C         3.231086         1.196980         0.360473
 O         4.492410         1.253046         1.000325
 C         2.525906         2.164914        -0.655038
 C         1.974347         0.853460        -1.145131
 C         3.103635         0.066938        -0.666416
 O         2.433849        -1.027906        -0.246671
 H        -0.466523        -0.261600         1.233825
 H        -0.550910        -0.037698        -0.532990
 H         0.030754        -1.633421         0.262760
 H         1.514502         1.614244         1.715710
 H         2.467764        -0.030427         1.900974
 H         4.459365         1.969746         1.557441
 H         1.785590         2.918638        -0.224286
 H         3.241041         2.667881        -1.312081
 H         1.498437         0.860544        -2.146680
 H         3.917823        -0.182568        -1.450855
