19
Iteration:  3497
 C        -0.044235        -0.402262         0.228833
 C         1.397197        -0.003149         0.032217
 C         2.148112         0.595423         1.295340
 C         3.230908         1.147434         0.399315
 O         4.515329         1.506600         0.976248
 C         2.511691         2.128069        -0.661061
 C         1.962278         0.802060        -1.152366
 C         3.106319         0.044631        -0.657682
 O         2.382557        -1.079671        -0.225075
 H         0.015838        -1.461223         0.598712
 H        -0.619322         0.126499         1.069232
 H        -0.475711        -0.287271        -0.822734
 H         1.630103         1.364294         1.800626
 H         2.471285        -0.154353         1.850855
 H         4.358977         1.652699         1.907105
 H         1.673581         2.805173        -0.378598
 H         3.253851         2.553922        -1.351033
 H         1.495019         0.584604        -2.078543
 H         4.044812        -0.007658        -1.245627
