19
Iteration:  1739
 C        -0.109868        -0.436222         0.093318
 C         1.362690        -0.035879         0.118402
 C         2.127386         0.602666         1.380055
 C         3.208978         1.189971         0.493773
 O         4.530850         1.468808         0.928195
 C         2.609393         2.135200        -0.665990
 C         1.951153         0.861060        -1.194071
 C         3.168668         0.104790        -0.667913
 O         2.317978        -1.079699        -0.207775
 H        -0.490612        -0.755057         1.070025
 H        -0.741067         0.338512        -0.193659
 H        -0.198543        -1.216126        -0.620102
 H         1.562346         1.284187         1.941304
 H         2.533699        -0.323101         2.032173
 H         4.675247         1.098246         1.908932
 H         2.034776         2.986566        -0.389562
 H         3.428383         2.342379        -1.333653
 H         1.588884         0.939057        -2.296998
 H         4.161010        -0.221015        -1.149909
