19
Iteration:  1029charge 0 multiplicity 1
 C        -0.134458        -0.402739         0.100062
 C         1.301205         0.028719         0.093101
 C         2.008389         0.743795         1.281914
 C         3.292284         1.107680         0.441622
 O         4.593189         1.392933         0.971890
 C         2.612748         2.109363        -0.637083
 C         1.971091         0.851642        -1.162342
 C         3.148542         0.009404        -0.628963
 O         2.440431        -1.120721        -0.160198
 H        -0.510853        -0.998471         0.990909
 H        -0.699250         0.502297        -0.063749
 H        -0.375065        -0.799147        -0.817842
 H         1.384327         1.809199         1.365888
 H         2.024536         0.225975         2.231049
 H         4.474368         1.498065         1.949771
 H         1.906974         2.922130        -0.423207
 H         3.412316         2.367502        -1.407998
 H         1.428247         0.706067        -2.140303
 H         3.988482        -0.217535        -1.339396
