19
Iteration:   331
 C        -0.096891        -0.393742        -0.019270
 C         1.349498         0.070165         0.046460
 C         2.064674         0.718929         1.284726
 C         3.307606         1.145571         0.447480
 O         4.513378         1.422457         1.000058
 C         2.580212         2.154552        -0.602905
 C         2.076631         0.773707        -1.133166
 C         3.202677         0.003224        -0.612204
 O         2.237035        -1.042168        -0.067779
 H        -0.195008        -1.443881         0.425775
 H        -0.953041         0.205476         0.394460
 H        -0.300426        -0.396176        -1.045852
 H         1.438143         1.492003         1.612759
 H         2.232307        -0.035391         2.087058
 H         5.023012         0.625742         0.813504
 H         1.851662         2.871013        -0.209583
 H         3.332963         2.624110        -1.271507
 H         1.638434         0.405077        -2.184932
 H         4.070077        -0.339916        -1.270888
