19
Iteration:  4473charge 0 multiplicity 1
 C        -0.060289        -0.496025         0.287607
 C         1.422432        -0.087447         0.068360
 C         2.104408         0.645576         1.263307
 C         3.262984         1.192416         0.338467
 O         4.493509         1.394580         0.956355
 C         2.548722         2.187735        -0.551818
 C         1.873964         0.919683        -1.137933
 C         3.198092         0.043395        -0.719841
 O         2.422413        -1.046353        -0.255465
 H        -0.758990         0.384403        -0.156981
 H        -0.522918        -1.327497        -0.346569
 H        -0.487728        -0.468284         1.266556
 H         1.798067         1.536245         1.724038
 H         2.436286        -0.095041         1.983145
 H         4.451687         0.996711         1.926663
 H         1.936725         3.076774        -0.241882
 H         3.240816         2.725024        -1.320121
 H         1.059447         0.673065        -2.014431
 H         3.955438        -0.185140        -1.429549
