19
Iteration:  2518charge 0 multiplicity 1
 C        -0.033880        -0.425349         0.284271
 C         1.443570        -0.087233         0.064835
 C         2.114253         0.736980         1.214941
 C         3.313807         1.102788         0.415293
 O         4.486510         1.529397         1.055261
 C         2.525112         2.152057        -0.522410
 C         1.892429         0.853440        -1.138485
 C         3.174730        -0.054201        -0.833368
 O         2.345078        -1.101113        -0.288961
 H        -0.166213        -1.109662         1.087930
 H        -0.798508         0.446036        -0.000445
 H        -0.281596        -0.968969        -0.665299
 H         1.344977         1.559876         1.530644
 H         2.363185         0.179753         2.054108
 H         4.579864         1.224881         1.949106
 H         2.047106         2.885235         0.160967
 H         3.232418         2.668567        -1.302401
 H         1.359525         1.024857        -2.078425
 H         3.816925        -0.353532        -1.632002
