19
Iteration:   967charge 0 multiplicity 1
 C        -0.146246        -0.391960         0.228514
 C         1.358874        -0.010757        -0.026998
 C         2.080929         0.739921         1.238134
 C         3.296887         1.215718         0.439632
 O         4.501053         1.470985         1.114931
 C         2.703944         2.015615        -0.593115
 C         2.036459         0.800883        -1.187855
 C         3.134238        -0.085802        -0.725105
 O         2.296515        -1.107222        -0.279417
 H        -0.364945        -0.684582         1.354201
 H        -0.676021         0.539789         0.108256
 H        -0.420950        -1.260303        -0.407453
 H         1.442658         1.554629         1.317178
 H         2.357372         0.278994         2.179057
 H         4.341085         2.181914         1.791611
 H         2.137859         2.917068        -0.181272
 H         3.297365         2.690671        -1.298687
 H         1.458970         0.799126        -2.181550
 H         4.046478        -0.497300        -1.342775
