19
Iteration:  3192
 C        -0.010203        -0.482008         0.212555
 C         1.400463         0.022032         0.074351
 C         2.183488         0.615339         1.282470
 C         3.247306         1.175854         0.453713
 O         4.539364         1.482345         0.983023
 C         2.498032         2.106541        -0.609988
 C         1.900684         0.884165        -1.146019
 C         3.124026        -0.014795        -0.764699
 O         2.372716        -1.064605        -0.277408
 H        -0.300922        -0.844710         1.285604
 H        -0.772247         0.324293         0.110088
 H        -0.385051        -1.146981        -0.711817
 H         1.688711         1.358764         1.970686
 H         2.476959        -0.140713         1.929997
 H         4.265886         1.820121         1.941653
 H         1.707806         2.793777        -0.193975
 H         3.246968         2.671065        -1.190314
 H         1.275491         0.899852        -2.036728
 H         4.043871        -0.352393        -1.244001
