19
Iteration:  4653charge 0 multiplicity 1
 C        -0.036672        -0.649495         0.288675
 C         1.353852         0.012113         0.106211
 C         2.098544         0.758048         1.253816
 C         3.348053         1.124708         0.377209
 O         4.543728         1.408864         1.004707
 C         2.667722         2.203338        -0.582170
 C         1.882002         0.921714        -1.144806
 C         3.094167         0.030224        -0.792258
 O         2.275660        -1.028937        -0.276505
 H        -0.691904         0.006472         0.830828
 H        -0.478600        -0.978797        -0.648018
 H         0.113739        -1.606887         1.014830
 H         1.591298         1.677390         1.559574
 H         2.258766         0.127760         2.115628
 H         4.309764         1.824618         1.849243
 H         2.049283         3.050242        -0.253160
 H         3.372405         2.451807        -1.360579
 H         1.632958         0.741979        -2.147513
 H         3.799992        -0.425725        -1.509311
