19
Iteration:  4564charge 0 multiplicity 1
 C        -0.006861        -0.404190         0.196366
 C         1.390014        -0.057268         0.098993
 C         2.099441         0.653087         1.280921
 C         3.332549         1.138025         0.360713
 O         4.538697         1.545733         0.948750
 C         2.559866         2.054037        -0.506431
 C         1.843165         0.867768        -1.121588
 C         3.147234         0.113294        -0.764097
 O         2.328065        -1.123226        -0.229635
 H        -0.628391         0.455967         0.339351
 H        -0.159200        -0.928135        -0.743850
 H        -0.248789        -1.067478         1.105610
 H         1.398120         1.451995         1.630551
 H         2.304965        -0.013685         2.066814
 H         4.747481         0.867728         1.637466
 H         1.895198         2.813220        -0.043852
 H         3.158449         2.528254        -1.283931
 H         1.327439         0.760493        -2.082446
 H         3.914005        -0.247600        -1.485157
