19
Iteration:   640
 C        -0.093141        -0.394713         0.035829
 C         1.353060         0.028315         0.111991
 C         2.071222         0.708440         1.350609
 C         3.239185         1.117816         0.416038
 O         4.513408         1.359976         1.014726
 C         2.646383         2.126601        -0.748307
 C         1.964581         0.865394        -1.138737
 C         3.167922        -0.010780        -0.655774
 O         2.333754        -1.033795        -0.122366
 H        -0.392526        -0.927579         0.869363
 H        -0.631648         0.513307        -0.093116
 H        -0.025108        -1.107757        -0.893315
 H         1.476885         1.449264         1.958328
 H         2.329013        -0.199239         1.937477
 H         4.445725         1.665308         1.864482
 H         2.060583         2.979669        -0.447315
 H         3.381502         2.410032        -1.488514
 H         1.530068         0.817343        -2.105666
 H         4.038910        -0.360029        -1.146925
