19
Iteration:  1301
 C        -0.069567        -0.433014         0.101978
 C         1.360861         0.013723         0.111337
 C         2.046407         0.656170         1.321662
 C         3.238960         1.148901         0.469264
 O         4.509785         1.507395         0.985052
 C         2.685326         2.159816        -0.673363
 C         1.953882         0.862331        -1.145806
 C         3.171178        -0.027095        -0.694752
 O         2.265923        -1.072580        -0.187157
 H        -0.382267        -1.233107         0.684939
 H        -0.624444         0.484871         0.328221
 H        -0.323319        -0.737443        -0.874020
 H         1.530292         1.465193         1.883928
 H         2.408783        -0.308572         1.936047
 H         4.890159         1.008410         1.802556
 H         2.192306         3.111523        -0.542367
 H         3.603317         2.227126        -1.255607
 H         1.472238         0.612764        -2.194905
 H         4.129698        -0.396977        -1.228618
