19
Iteration:  3084
 C        -0.037761        -0.579304         0.234009
 C         1.348663        -0.036217         0.120568
 C         1.964882         0.699127         1.233472
 C         3.281240         1.172361         0.418106
 O         4.562305         1.377417         0.963752
 C         2.621532         2.145504        -0.568696
 C         1.886036         0.934471        -1.085930
 C         3.120493         0.077028        -0.772111
 O         2.431877        -1.036578        -0.240845
 H         0.190106        -1.638661         0.526996
 H        -0.592609         0.093411         0.853201
 H        -0.553049        -0.608031        -0.838346
 H         1.410404         1.589812         1.350972
 H         2.335218         0.071993         2.176417
 H         4.463150         1.990278         1.816835
 H         2.050073         3.037518        -0.283500
 H         3.284834         2.207521        -1.424991
 H         1.353202         0.865624        -2.033132
 H         3.894098        -0.266921        -1.475654
