19
Iteration:   260charge 0 multiplicity 1
 C        -0.065427        -0.387375         0.264196
 C         1.382492         0.091475         0.016373
 C         2.060071         0.654761         1.184884
 C         3.312074         1.136559         0.420177
 O         4.372293         1.427318         1.332451
 C         2.732540         2.110797        -0.733304
 C         1.952522         0.854139        -1.285039
 C         3.197890        -0.107182        -0.765058
 O         2.259672        -1.044049        -0.221783
 H        -0.080835        -0.788364         1.269159
 H        -0.949170         0.308597         0.183700
 H        -0.340130        -1.141980        -0.627659
 H         1.696634         1.635161         1.635332
 H         2.197878        -0.084000         1.979539
 H         5.134323         1.610107         0.761943
 H         2.242970         3.026868        -0.310750
 H         3.561977         2.487141        -1.379586
 H         1.444588         0.929974        -2.181363
 H         4.064383        -0.601947        -1.130386
