19
Iteration:  3230
 C        -0.049809        -0.598922         0.215537
 C         1.356494        -0.035027         0.058537
 C         2.071683         0.742971         1.251478
 C         3.276751         1.162161         0.414442
 O         4.529761         1.496278         0.970064
 C         2.650161         2.125875        -0.575313
 C         1.853876         0.948422        -1.120127
 C         3.114829         0.001267        -0.727246
 O         2.386470        -1.077761        -0.251487
 H        -0.079020        -1.489641         0.792673
 H        -0.585139         0.214003         0.793113
 H        -0.371235        -0.904262        -0.724083
 H         1.452358         1.576772         1.562044
 H         2.343570         0.091843         2.180186
 H         4.779938         1.244411         1.849443
 H         2.064279         2.979775        -0.265344
 H         3.298136         2.512203        -1.370060
 H         1.116992         0.903643        -1.980959
 H         3.993576        -0.230117        -1.359379
