19
Iteration:   557charge 0 multiplicity 1
 C        -0.077876        -0.404130         0.204528
 C         1.295382         0.042541         0.046890
 C         2.121889         0.621636         1.257030
 C         3.280745         1.130229         0.427040
 O         4.405845         1.379546         1.192157
 C         2.717266         2.128868        -0.754644
 C         2.020948         0.862522        -1.259998
 C         3.193685        -0.055781        -0.723075
 O         2.276216        -1.024790        -0.199620
 H        -0.093085        -1.174861         1.035120
 H        -0.731667         0.484018         0.525649
 H        -0.519050        -0.938317        -0.679144
 H         1.730171         1.598085         1.801613
 H         2.316444        -0.149106         2.058290
 H         4.247395         2.348281         1.455883
 H         2.258395         3.155899        -0.583180
 H         3.660673         2.435195        -1.276253
 H         1.477973         0.836448        -2.187123
 H         4.069948        -0.436285        -1.214261
