19
Iteration:  4076
 C        -0.032414        -0.476233         0.231432
 C         1.382755        -0.006184         0.070077
 C         2.042546         0.726647         1.273659
 C         3.324097         1.166831         0.351105
 O         4.497991         1.487126         1.016495
 C         2.567464         2.112541        -0.595013
 C         1.876809         0.878328        -1.137721
 C         3.157966        -0.013767        -0.786945
 O         2.401514        -1.074645        -0.234907
 H        -0.321223        -0.295929         1.204043
 H        -0.805421         0.095054        -0.223997
 H        -0.150710        -1.597256         0.082194
 H         1.538061         1.638234         1.547729
 H         2.328864        -0.045156         2.141677
 H         4.579586         0.941906         1.742033
 H         1.850777         2.774299        -0.087337
 H         3.132206         2.768061        -1.259646
 H         1.410161         0.545001        -2.040509
 H         4.177580        -0.323310        -1.309494
