19
Iteration:  3798
 C        -0.098878        -0.418310         0.261805
 C         1.375086        -0.035519         0.076473
 C         2.176310         0.574047         1.236462
 C         3.220191         1.164334         0.435311
 O         4.427496         1.652629         1.015617
 C         2.609958         2.105104        -0.629184
 C         1.909821         0.836754        -1.179102
 C         3.227679        -0.026352        -0.718899
 O         2.351385        -1.083067        -0.262989
 H        -0.294149        -0.379581         1.384068
 H        -0.832450         0.336402        -0.045643
 H        -0.106209        -1.345704        -0.239864
 H         1.668545         1.251840         1.882874
 H         2.500697        -0.207261         1.829628
 H         4.886000         0.814769         1.279274
 H         2.003693         2.912751        -0.178586
 H         3.448018         2.503173        -1.241863
 H         1.184904         0.701506        -2.005234
 H         3.992713        -0.338897        -1.317117
