19
Iteration:   532
 C        -0.076913        -0.337641         0.196084
 C         1.311109         0.020843         0.012675
 C         2.012357         0.786686         1.204788
 C         3.325531         1.176079         0.395998
 O         4.482699         1.418956         1.184263
 C         2.675424         2.054123        -0.598603
 C         2.013593         0.782817        -1.177314
 C         3.193835        -0.083598        -0.688858
 O         2.309824        -1.150432        -0.269650
 H        -0.211290        -1.275961         0.657942
 H        -0.523091         0.427632         0.810462
 H        -0.653020        -0.458580        -0.828977
 H         1.497870         1.574471         1.551550
 H         2.228880         0.152455         2.025310
 H         4.429687         2.357868         1.296736
 H         2.106921         2.885259        -0.161786
 H         3.279054         2.527769        -1.384659
 H         1.670936         0.784245        -2.172886
 H         3.994942        -0.321948        -1.371854
