19
Iteration:  2949charge 0 multiplicity 1
 C        -0.051898        -0.514657         0.204376
 C         1.394070        -0.067160         0.099309
 C         2.061191         0.729924         1.314744
 C         3.272667         1.152148         0.392700
 O         4.503032         1.487528         1.010698
 C         2.607705         2.153290        -0.534817
 C         1.881831         0.947803        -1.145927
 C         3.090402         0.024118        -0.777274
 O         2.447805        -1.085486        -0.310083
 H        -0.372417        -0.830197         1.223247
 H        -0.686028         0.315634         0.061697
 H        -0.210242        -1.419205        -0.380968
 H         1.333385         1.563944         1.537884
 H         2.140062         0.162337         2.311291
 H         4.864293         0.605591         1.301820
 H         2.044124         2.842960         0.067233
 H         3.213391         2.629471        -1.306166
 H         1.432505         0.688347        -2.092608
 H         3.919762        -0.336764        -1.387334
