19
Iteration:  2934
 C        -0.030672        -0.541430         0.234927
 C         1.377667        -0.049157         0.088174
 C         2.027076         0.688114         1.235723
 C         3.207142         1.158207         0.446673
 O         4.512501         1.486225         1.004404
 C         2.628834         2.132622        -0.570335
 C         1.880366         0.851396        -1.073542
 C         3.146206         0.126069        -0.750096
 O         2.386437        -1.099664        -0.291394
 H        -0.190835        -0.980889         1.254301
 H        -0.708690         0.491865         0.133996
 H        -0.201210        -1.214404        -0.625528
 H         1.479543         1.517086         1.740007
 H         2.237329         0.059206         2.024658
 H         5.109850         0.632873         1.147184
 H         2.185401         3.148634        -0.463551
 H         3.464082         2.410467        -1.272708
 H         1.333804         0.945633        -2.029434
 H         4.023929         0.168133        -1.465611
