19
Iteration:  2964
 C        -0.044502        -0.522401         0.213292
 C         1.368986         0.005822         0.102751
 C         2.079115         0.692071         1.208435
 C         3.326670         1.126213         0.362807
 O         4.500963         1.475327         1.010814
 C         2.514164         2.201811        -0.508160
 C         1.934959         0.848558        -1.101205
 C         3.203373         0.012792        -0.817942
 O         2.338113        -1.062376        -0.228720
 H        -0.249585        -0.817911         1.227586
 H        -0.753246         0.152501        -0.240404
 H        -0.252549        -1.354012        -0.477104
 H         1.681024         1.612896         1.571997
 H         2.468368        -0.092394         2.046493
 H         4.730277         0.808669         1.593812
 H         1.763181         2.838445         0.023071
 H         3.191255         2.756095        -1.190472
 H         1.283815         1.033253        -1.963477
 H         4.079390        -0.166479        -1.438979
