19
Iteration:  2441charge 0 multiplicity 1
 C        -0.014993        -0.543418         0.152470
 C         1.373275         0.031989         0.078252
 C         2.054643         0.805830         1.226865
 C         3.309741         1.096687         0.395617
 O         4.552804         1.541795         1.000998
 C         2.542536         2.101233        -0.490232
 C         1.897597         0.829996        -1.075141
 C         3.139367         0.002097        -0.734939
 O         2.366401        -1.117909        -0.247242
 H        -0.091339        -1.569188         0.511034
 H        -0.677711         0.272800         0.713925
 H        -0.467191        -0.471787        -0.872768
 H         1.548628         1.806638         1.431668
 H         2.073081         0.255654         2.069273
 H         4.888924         0.714285         1.375543
 H         1.949189         2.961290        -0.210764
 H         3.161939         2.669228        -1.193279
 H         1.289315         0.844565        -2.007799
 H         3.955622        -0.403956        -1.321633
