19
Iteration:  3635
 C        -0.056158        -0.410341         0.154058
 C         1.423372        -0.050393         0.125993
 C         2.158743         0.737950         1.289240
 C         3.285357         1.200272         0.363286
 O         4.445895         1.497453         1.082543
 C         2.529038         2.093995        -0.593779
 C         1.906781         0.805798        -1.129243
 C         3.170224        -0.078529        -0.734324
 O         2.378086        -1.116191        -0.246976
 H        -0.344266        -0.870136         1.071249
 H        -0.764699         0.415616         0.323361
 H        -0.395781        -0.997076        -0.629140
 H         1.488738         1.499319         1.666547
 H         2.505958         0.029692         2.133462
 H         4.941766         2.167551         0.481507
 H         1.763762         2.764102        -0.208121
 H         3.182647         2.607477        -1.301790
 H         1.352334         0.720649        -2.128932
 H         4.038864        -0.275281        -1.286162
