19
Iteration:  4972
 C        -0.037980        -0.593825         0.253807
 C         1.364267         0.055821         0.138078
 C         2.119159         0.627378         1.343469
 C         3.360005         1.210383         0.377721
 O         4.488736         1.477502         1.037293
 C         2.617995         2.178079        -0.558793
 C         1.906503         0.892392        -1.173885
 C         3.070947         0.007513        -0.805775
 O         2.296960        -1.074137        -0.272340
 H        -0.834621         0.021378         0.718097
 H        -0.406769        -0.896998        -0.761709
 H         0.096904        -1.539545         0.814230
 H         1.438545         1.342758         1.835394
 H         2.588335        -0.144067         2.074460
 H         5.249284         1.757122         0.413119
 H         2.075778         3.042454        -0.071941
 H         3.206223         2.665846        -1.404018
 H         1.339526         0.786617        -2.089111
 H         3.820002        -0.265738        -1.470014
