19
Iteration:   186charge 0 multiplicity 1
 C        -0.145772        -0.355360        -0.061437
 C         1.360716         0.062939         0.101590
 C         2.143705         0.742868         1.298740
 C         3.266661         1.100287         0.422701
 O         4.496412         1.343144         0.963101
 C         2.657936         2.140737        -0.570889
 C         1.968662         0.841000        -1.155776
 C         3.152769        -0.097164        -0.610737
 O         2.316557        -1.080700        -0.079773
 H        -0.521233        -1.073022         0.614444
 H        -0.893679         0.456406        -0.211691
 H        -0.184170        -0.811589        -1.098107
 H         1.723733         1.582181         1.773270
 H         2.505623         0.038649         1.972030
 H         4.500708         2.135326         1.496208
 H         2.053093         2.979618        -0.178426
 H         3.377349         2.563072        -1.274416
 H         1.460499         0.809013        -2.120772
 H         4.073312        -0.358890        -1.000481
