19
Iteration:  2651charge 0 multiplicity 1
 C        -0.046769        -0.532374         0.288297
 C         1.385532        -0.019955         0.026112
 C         2.079266         0.762638         1.264151
 C         3.298107         1.124195         0.421448
 O         4.485241         1.482786         1.037669
 C         2.630109         2.113493        -0.543542
 C         1.912604         0.884921        -1.186402
 C         3.121434        -0.024890        -0.824056
 O         2.369733        -1.055874        -0.287503
 H        -0.096611        -1.539043         0.700681
 H        -0.637276         0.046574         1.117547
 H        -0.603780        -0.573849        -0.643110
 H         1.452323         1.620495         1.706690
 H         2.136768         0.053626         2.132596
 H         4.529920         1.416218         2.012434
 H         2.110490         3.012392        -0.243549
 H         3.218576         2.579552        -1.346595
 H         1.583980         0.907548        -2.222958
 H         4.024763        -0.296782        -1.387913
