19
Iteration:  1803charge 0 multiplicity 1
 C        -0.111189        -0.439605         0.228963
 C         1.318408         0.051525         0.124868
 C         2.112881         0.635881         1.258201
 C         3.279840         1.199024         0.399083
 O         4.389945         1.541284         1.114452
 C         2.672449         2.089624        -0.701150
 C         1.993339         0.839661        -1.170557
 C         3.188278        -0.003682        -0.726230
 O         2.329930        -1.085768        -0.260238
 H        -0.164305        -1.276594         0.960972
 H        -0.874218         0.269466         0.545981
 H        -0.246900        -0.934015        -0.689047
 H         1.648429         1.404137         1.789737
 H         2.643161        -0.191260         1.955894
 H         4.884650         0.639491         1.306095
 H         2.129931         2.982322        -0.352490
 H         3.362805         2.554543        -1.428879
 H         1.505422         0.740778        -2.130178
 H         4.096185        -0.183558        -1.392640
