19
Iteration:  4521charge 0 multiplicity 1
 C        -0.027365        -0.615327         0.303421
 C         1.321047        -0.037042         0.121037
 C         2.111374         0.675285         1.245114
 C         3.239682         1.168661         0.360247
 O         4.526116         1.498951         1.037779
 C         2.688603         2.162769        -0.600272
 C         1.935348         0.941962        -1.179835
 C         3.090508         0.020383        -0.747860
 O         2.261536        -1.016883        -0.290992
 H        -0.806020        -0.080197        -0.131259
 H        -0.062046        -1.545358        -0.206494
 H        -0.378928        -0.745345         1.376298
 H         1.565716         1.489108         1.802923
 H         2.476014        -0.097020         1.919402
 H         5.090144         0.842946         1.296203
 H         2.281510         2.986294        -0.032725
 H         3.272209         2.612715        -1.333081
 H         1.546000         0.962396        -2.180786
 H         4.054444        -0.177514        -1.296469
