19
Iteration:  3649
 C        -0.065235        -0.418515         0.272485
 C         1.359004         0.021235         0.075442
 C         2.128879         0.603639         1.229702
 C         3.264321         1.163924         0.402839
 O         4.425111         1.546219         1.063398
 C         2.584392         2.087009        -0.659618
 C         1.960975         0.784076        -1.173958
 C         3.161858         0.020033        -0.720481
 O         2.349807        -1.103894        -0.186632
 H        -0.181495        -1.254221         0.892412
 H        -0.666855         0.478790         0.452360
 H        -0.293542        -0.773646        -0.728337
 H         1.717683         1.366469         1.925521
 H         2.565477        -0.334690         1.881471
 H         4.778344         2.351247         0.809635
 H         2.079395         2.959824        -0.252500
 H         3.284942         2.418009        -1.404372
 H         1.538477         0.680220        -2.138183
 H         4.001727        -0.354270        -1.388253
