19
Iteration:  3742
 C        -0.024816        -0.548195         0.151955
 C         1.350838         0.005872         0.150929
 C         2.092581         0.710467         1.333773
 C         3.224719         1.211620         0.390772
 O         4.453730         1.359331         1.022473
 C         2.597116         2.184624        -0.715073
 C         1.927929         0.841340        -1.160702
 C         3.136297         0.042355        -0.663621
 O         2.397930        -1.042199        -0.135341
 H         0.129132        -1.452831         0.885285
 H        -0.665154         0.322180         0.370141
 H        -0.309339        -1.090056        -0.804921
 H         1.552465         1.626787         1.686886
 H         2.310622         0.039461         2.058063
 H         5.133321         1.769730         0.336313
 H         2.057100         3.035641        -0.245688
 H         3.161879         2.547138        -1.622975
 H         1.417087         0.665429        -2.157551
 H         3.885725        -0.163064        -1.354609
