19
Iteration:  1948charge 0 multiplicity 1
 C        -0.073392        -0.454616         0.251924
 C         1.339220         0.016654         0.001215
 C         2.119302         0.664205         1.240094
 C         3.235522         1.147164         0.401576
 O         4.438040         1.559430         1.118995
 C         2.600991         2.087791        -0.591180
 C         2.008633         0.827252        -1.184880
 C         3.181295         0.002996        -0.781838
 O         2.303741        -1.048983        -0.227803
 H        -0.271215        -0.535316         1.319060
 H        -0.774556         0.283582        -0.057080
 H        -0.209456        -1.389043        -0.341304
 H         1.865023         1.352027         1.873101
 H         2.650271        -0.248184         1.686388
 H         4.952497         0.816634         1.299681
 H         1.903568         2.839467        -0.215169
 H         3.376126         2.447091        -1.288182
 H         1.477096         0.820866        -2.193617
 H         4.173733        -0.288745        -1.195609
