19
Iteration:  2263
 C        -0.117826        -0.474857         0.159341
 C         1.398420        -0.014686         0.105896
 C         2.120678         0.637164         1.296707
 C         3.243195         1.150654         0.417162
 O         4.479387         1.541773         0.959256
 C         2.645815         2.149979        -0.624081
 C         1.969309         0.842963        -1.146000
 C         3.097190         0.005286        -0.679381
 O         2.361378        -1.049621        -0.198968
 H        -0.065393        -1.555838         0.497855
 H        -0.752859         0.087921         0.746466
 H        -0.522771        -0.520426        -0.886873
 H         1.512537         1.517021         1.803518
 H         2.379271        -0.012050         2.041534
 H         4.719771         0.875195         1.652935
 H         2.011876         2.939266        -0.291207
 H         3.409439         2.480007        -1.319098
 H         1.592897         0.704092        -2.157249
 H         3.939996        -0.186683        -1.419353
