19
Iteration:  2120
 C        -0.082392        -0.497041         0.162889
 C         1.375544        -0.075977         0.076098
 C         2.041347         0.690168         1.255799
 C         3.274497         1.189335         0.434554
 O         4.522670         1.563412         1.012806
 C         2.658640         2.131978        -0.603911
 C         1.903620         0.923483        -1.078819
 C         3.178294        -0.044179        -0.726904
 O         2.339720        -1.104661        -0.234270
 H        -0.293913        -0.992442         1.105600
 H        -0.600367         0.354358        -0.036746
 H        -0.353295        -1.119875        -0.674289
 H         1.383120         1.455212         1.801682
 H         2.168346         0.026143         2.045568
 H         4.858614         0.700442         1.313645
 H         2.035936         2.929538        -0.245982
 H         3.367232         2.489989        -1.350845
 H         1.321570         0.949033        -2.039452
 H         4.080399        -0.187083        -1.421910
