19
Iteration:  2365
 C        -0.070104        -0.464551         0.228822
 C         1.391334        -0.046766         0.067728
 C         2.111005         0.719130         1.208689
 C         3.306024         1.161668         0.437055
 O         4.485898         1.609316         1.078771
 C         2.601940         2.093471        -0.506689
 C         1.936300         0.898388        -1.127996
 C         3.095126        -0.088105        -0.827488
 O         2.366734        -1.166260        -0.358584
 H        -0.203613        -0.481269         1.276451
 H        -0.769301         0.421458         0.079065
 H        -0.323209        -1.423448        -0.139784
 H         1.464751         1.640388         1.327202
 H         2.398859         0.249087         2.148364
 H         4.683800         0.976270         1.858204
 H         2.000899         2.791765         0.146723
 H         3.117794         2.717986        -1.277970
 H         1.503404         0.899049        -2.151523
 H         3.986118        -0.406202        -1.371542
