19
Iteration:   768charge 0 multiplicity 1
 C        -0.065890        -0.442029         0.019722
 C         1.333628         0.038867         0.069376
 C         2.045151         0.744606         1.293640
 C         3.262981         1.169854         0.398821
 O         4.554458         1.344450         0.943141
 C         2.669334         2.181696        -0.580933
 C         1.972260         0.838256        -1.173153
 C         3.187762        -0.025456        -0.620066
 O         2.253386        -1.051036        -0.093782
 H        -0.375077        -1.093888         1.005641
 H        -0.784433         0.270843        -0.357029
 H         0.028200        -1.149699        -0.749202
 H         1.558406         1.597986         1.685412
 H         2.300693         0.022552         2.054573
 H         4.594479         1.796334         1.873852
 H         1.995407         2.971988        -0.249164
 H         3.399752         2.418036        -1.357500
 H         1.456478         0.653254        -2.089340
 H         3.996147        -0.498173        -1.105988
