19
Iteration:   857
 C        -0.123355        -0.394796         0.172933
 C         1.330635         0.021660         0.043852
 C         2.036818         0.678783         1.216145
 C         3.277801         1.191655         0.413545
 O         4.472649         1.417404         1.034101
 C         2.742894         2.128500        -0.701153
 C         2.056877         0.830230        -1.151111
 C         3.154084        -0.028832        -0.611579
 O         2.285969        -1.076111        -0.190107
 H        -0.180090        -1.361548         0.908556
 H        -0.719328         0.378667         0.626037
 H        -0.546272        -0.837120        -0.720630
 H         1.542668         1.402852         1.793259
 H         2.502528         0.027162         1.919954
 H         4.211832         2.007505         1.847518
 H         2.030008         2.961021        -0.551133
 H         3.532815         2.349599        -1.439110
 H         1.659254         0.651793        -2.171147
 H         4.077581        -0.414166        -1.121666
