19
Iteration:   937charge 0 multiplicity 1
 C        -0.084286        -0.423226         0.165620
 C         1.366918         0.094968         0.047941
 C         1.943492         0.667083         1.305083
 C         3.278626         1.172884         0.414596
 O         4.486251         1.318017         1.017209
 C         2.709471         2.117803        -0.707868
 C         1.987537         0.783989        -1.163801
 C         3.169350         0.004199        -0.688319
 O         2.364714        -1.015309        -0.137855
 H        -0.057888        -1.084242         0.999266
 H        -0.827058         0.426763         0.163893
 H        -0.371708        -0.886064        -0.868813
 H         1.402375         1.556348         1.693698
 H         2.199983        -0.062413         2.144816
 H         4.354398         2.161281         1.602084
 H         2.185135         2.939120        -0.229788
 H         3.443354         2.405002        -1.455851
 H         1.471376         0.615970        -2.119822
 H         4.092138        -0.180339        -1.287335
