19
Iteration:   148
 C        -0.145381        -0.407391         0.142709
 C         1.272430         0.087993         0.021527
 C         2.025617         0.846643         1.191251
 C         3.257596         1.144997         0.484651
 O         4.569297         1.393671         1.054659
 C         2.736343         2.049517        -0.636152
 C         1.970816         0.838327        -1.197865
 C         3.131859        -0.018329        -0.649112
 O         2.363204        -1.109751        -0.204795
 H        -0.149659        -1.331802         0.852461
 H        -0.782740         0.317085         0.675953
 H        -0.487836        -0.753439        -0.897676
 H         1.390073         1.729819         1.537696
 H         1.985523         0.083440         2.047826
 H         4.525206         1.087708         2.035988
 H         2.261659         2.998330        -0.322070
 H         3.613531         2.193332        -1.300081
 H         1.537777         0.657182        -2.207380
 H         4.156048        -0.270266        -1.118905
