19
Iteration:   645
 C        -0.091328        -0.397942         0.037911
 C         1.358683         0.000190         0.104701
 C         2.085365         0.714089         1.326579
 C         3.222202         1.144334         0.421779
 O         4.513876         1.380485         1.032523
 C         2.711393         2.093512        -0.736426
 C         1.960137         0.819333        -1.138310
 C         3.140290         0.005835        -0.650110
 O         2.325534        -1.030680        -0.161438
 H        -0.570728        -1.043303         0.879467
 H        -0.639323         0.603909         0.054199
 H        -0.117113        -1.069566        -0.813278
 H         1.578641         1.459465         1.921331
 H         2.319639        -0.056712         2.073382
 H         4.495243         1.797180         1.970266
 H         1.952359         2.884154        -0.452534
 H         3.508092         2.495356        -1.414451
 H         1.351660         0.873934        -2.088653
 H         4.010785        -0.343613        -1.271394
