19
Iteration:  2396
 C        -0.074782        -0.450679         0.152010
 C         1.357512         0.025115         0.091136
 C         2.172534         0.577621         1.316015
 C         3.229174         1.179732         0.440679
 O         4.460381         1.523312         0.976472
 C         2.616093         2.050442        -0.605350
 C         1.906067         0.851164        -1.153880
 C         3.138133         0.056849        -0.711928
 O         2.366749        -1.034657        -0.247487
 H        -0.042808        -0.942666         1.145855
 H        -0.812975         0.360007        -0.020063
 H        -0.453494        -1.179759        -0.591802
 H         1.681134         1.262418         2.070062
 H         2.590556        -0.163669         1.843970
 H         4.591655         1.111526         1.810329
 H         2.158385         2.960156        -0.241075
 H         3.284325         2.469094        -1.352682
 H         1.497373         0.714873        -2.196190
 H         4.090614        -0.133372        -1.291529
