19
Iteration:   559
 C        -0.068502        -0.418817         0.197333
 C         1.289981         0.044247         0.037881
 C         2.116198         0.625466         1.261126
 C         3.269502         1.150752         0.409489
 O         4.414997         1.380443         1.191945
 C         2.720710         2.115885        -0.734821
 C         2.015752         0.863169        -1.261057
 C         3.184458        -0.047526        -0.704310
 O         2.273551        -1.029149        -0.198386
 H        -0.054482        -1.162727         1.108579
 H        -0.693120         0.511189         0.446749
 H        -0.484435        -0.881112        -0.648898
 H         1.684067         1.645101         1.879904
 H         2.372074        -0.187657         2.048832
 H         4.259732         2.250639         1.453160
 H         2.312053         3.148428        -0.595727
 H         3.649503         2.370592        -1.314644
 H         1.469600         0.875742        -2.284351
 H         4.084502        -0.442788        -1.267031
