19
Iteration:   883
 C        -0.070063        -0.474882         0.080022
 C         1.343379         0.045328         0.057453
 C         1.957023         0.840148         1.246363
 C         3.281147         1.116318         0.478340
 O         4.588840         1.385893         0.960456
 C         2.684628         2.061597        -0.585207
 C         1.972829         0.831030        -1.148029
 C         3.118658        -0.042329        -0.707560
 O         2.339826        -1.053820        -0.109786
 H        -0.200198        -1.470100         0.461013
 H        -0.810087         0.232667         0.555549
 H        -0.356554        -0.607736        -1.058396
 H         1.485514         1.901219         1.562233
 H         2.057695         0.210682         2.231374
 H         4.445186         1.973806         1.776969
 H         2.050943         2.924935        -0.363630
 H         3.476371         2.172084        -1.309876
 H         1.423578         0.869759        -2.113685
 H         4.081388        -0.299527        -1.217646
