19
Iteration:  2452
 C        -0.058148        -0.540556         0.175929
 C         1.351292         0.027876         0.108589
 C         2.052844         0.769543         1.280141
 C         3.289244         1.141784         0.453745
 O         4.508158         1.521663         1.004921
 C         2.582355         2.141220        -0.606528
 C         1.883415         0.938928        -1.171402
 C         3.185954        -0.050408        -0.752599
 O         2.367438        -1.117114        -0.235293
 H         0.000837        -1.549011         0.572666
 H        -0.801240        -0.035683         0.989877
 H        -0.515733        -0.611642        -0.853135
 H         1.568500         1.709862         1.710158
 H         2.222813         0.110779         2.034219
 H         5.107921         0.723533         1.356945
 H         1.961875         2.792735        -0.012646
 H         3.418036         2.401791        -1.246293
 H         1.447212         0.779875        -2.177082
 H         4.093692        -0.174716        -1.356707
