19
Iteration:  4979
 C        -0.020023        -0.594102         0.254257
 C         1.312773         0.027860         0.157303
 C         2.137744         0.676136         1.316925
 C         3.256973         1.231825         0.387701
 O         4.498761         1.446196         1.049612
 C         2.633114         2.132021        -0.614237
 C         1.879282         0.921233        -1.120430
 C         3.102467         0.015606        -0.846735
 O         2.337262        -1.058859        -0.265737
 H        -0.760710        -0.035242         0.796688
 H        -0.244018        -0.778963        -0.776468
 H         0.167518        -1.551882         0.858340
 H         1.570111         1.489708         1.873971
 H         2.395222        -0.109489         2.027167
 H         5.269833         1.430858         0.368374
 H         1.832508         2.733070        -0.124312
 H         3.389869         2.564514        -1.225873
 H         1.259049         1.109926        -2.063827
 H         4.069493        -0.219560        -1.501175
