19
Iteration:   111
 C        -0.022363        -0.379333         0.283180
 C         1.349470         0.105709         0.011497
 C         2.040037         0.778558         1.136490
 C         3.300800         1.161886         0.400083
 O         4.372851         1.457719         1.313565
 C         2.792073         2.084353        -0.691660
 C         1.993354         0.810422        -1.299391
 C         3.091598        -0.085036        -0.742085
 O         2.266185        -1.115549        -0.210643
 H         0.035473        -1.148510         0.982055
 H        -0.671703         0.453619         0.547079
 H        -0.448158        -0.807763        -0.518442
 H         1.540525         1.655472         1.538479
 H         2.364672         0.080675         1.900217
 H         5.014083         0.634649         1.293266
 H         2.220111         2.990112        -0.528419
 H         3.690392         2.339613        -1.227059
 H         1.534185         0.800548        -2.317157
 H         3.904822        -0.434752        -1.298113
