19
Iteration:  4281charge 0 multiplicity 1
 C        -0.105552        -0.302471         0.164494
 C         1.376006        -0.013198         0.089105
 C         2.082105         0.669952         1.229846
 C         3.300204         1.147816         0.356372
 O         4.514833         1.539422         0.968260
 C         2.470554         2.065749        -0.561251
 C         1.901737         0.790014        -1.092391
 C         3.191165        -0.032427        -0.737692
 O         2.462403        -1.136367        -0.203348
 H        -0.068584        -1.085661         0.946550
 H        -0.488822         0.635527         0.637604
 H        -0.669490        -0.814259        -0.643669
 H         1.499578         1.616255         1.500615
 H         2.316829         0.038918         2.059706
 H         4.536774         1.392128         1.860430
 H         1.732621         2.697604         0.006908
 H         3.209519         2.497386        -1.256203
 H         1.549885         0.635095        -2.106622
 H         4.115121        -0.214973        -1.443057
