19
Iteration:    97charge 0 multiplicity 1
 C        -0.091630        -0.370314         0.212197
 C         1.305046         0.094094        -0.033568
 C         2.078200         0.859866         1.212571
 C         3.329593         1.070759         0.421481
 O         4.404306         1.477707         1.310989
 C         2.720719         2.001511        -0.726047
 C         2.010653         0.862985        -1.159864
 C         3.200698        -0.138405        -0.735747
 O         2.267062        -1.099811        -0.272553
 H         0.043861        -0.875540         1.130207
 H        -0.755112         0.426143         0.493387
 H        -0.560272        -0.967680        -0.659684
 H         1.622465         1.786147         1.517213
 H         2.019269         0.177596         2.024444
 H         5.208301         1.037467         1.102564
 H         2.145756         2.829704        -0.246343
 H         3.240433         2.366569        -1.641690
 H         1.528609         0.825014        -2.098076
 H         4.078849        -0.464140        -1.333592
