19
Iteration:  3552charge 0 multiplicity 1
 C        -0.031638        -0.583495         0.292633
 C         1.413861        -0.016311        -0.003289
 C         2.062581         0.825398         1.249542
 C         3.300634         1.113091         0.400125
 O         4.509130         1.529216         1.023449
 C         2.639801         2.126042        -0.547957
 C         1.810885         0.892209        -1.115958
 C         3.176312        -0.042402        -0.796007
 O         2.327161        -1.075009        -0.269662
 H        -0.012605        -1.118410         1.257420
 H        -0.794377         0.145531        -0.007243
 H        -0.205617        -1.473072        -0.429901
 H         1.573444         1.702942         1.588835
 H         2.155592         0.133982         1.984117
 H         4.590549         1.232879         1.878611
 H         2.151429         3.012288        -0.094576
 H         3.299316         2.470717        -1.350892
 H         1.282932         0.943650        -2.016805
 H         4.068558        -0.334519        -1.435416
