19
Iteration:  4470charge 0 multiplicity 1
 C        -0.073732        -0.474697         0.262150
 C         1.400046        -0.083846         0.047738
 C         2.130363         0.614272         1.272100
 C         3.244191         1.197624         0.351873
 O         4.504475         1.404009         0.956309
 C         2.531868         2.195389        -0.574230
 C         1.878019         0.915544        -1.137482
 C         3.226980         0.048799        -0.724380
 O         2.402256        -1.053591        -0.238156
 H        -0.760078         0.331546        -0.079980
 H        -0.444906        -1.306305        -0.338843
 H        -0.457360        -0.564969         1.326650
 H         1.838848         1.562731         1.728310
 H         2.417974        -0.170765         2.056474
 H         4.499213         1.097941         1.905459
 H         1.928632         3.028073        -0.186825
 H         3.241982         2.587252        -1.371464
 H         1.168416         0.782183        -1.862194
 H         3.971892        -0.158593        -1.460418
