19
Iteration:  4182
 C         0.005066        -0.497759         0.259697
 C         1.384843        -0.001161         0.070048
 C         2.036841         0.729102         1.285016
 C         3.246579         1.180864         0.401591
 O         4.488065         1.403382         0.963265
 C         2.606836         2.120866        -0.679988
 C         1.888596         0.842660        -1.213659
 C         3.132884         0.061029        -0.638068
 O         2.408431        -1.011603        -0.187369
 H         0.040640        -1.421511         0.920618
 H        -0.754667         0.320417         0.486688
 H        -0.386238        -0.854580        -0.743046
 H         1.389439         1.575666         1.725293
 H         2.344600         0.220798         2.147919
 H         4.743531         0.651021         1.434744
 H         1.987682         2.932236        -0.209982
 H         3.255764         2.413866        -1.525377
 H         1.274013         0.595062        -2.109602
 H         4.102339        -0.168719        -1.170159
