19
Iteration:  3374charge 0 multiplicity 1
 C        -0.027133        -0.509749         0.252434
 C         1.387647        -0.033818         0.117685
 C         2.063975         0.667227         1.299152
 C         3.252140         1.172699         0.377321
 O         4.526873         1.440893         0.981569
 C         2.598240         2.218219        -0.550847
 C         1.898830         0.816973        -1.146135
 C         3.122555         0.074359        -0.769198
 O         2.385246        -1.103394        -0.306198
 H        -0.387132        -0.706550         1.294720
 H        -0.755362         0.377080        -0.113861
 H        -0.017055        -1.482687        -0.279713
 H         1.412640         1.298533         1.738725
 H         2.508975        -0.035081         1.989927
 H         4.298741         1.746594         1.807904
 H         1.965634         3.051230        -0.176357
 H         3.283387         2.643772        -1.320206
 H         1.470214         0.788529        -2.249480
 H         4.033324        -0.201742        -1.280180
