19
Iteration:    20
 C        -0.143081        -0.315326        -0.087454
 C         1.323666        -0.027619         0.014585
 C         2.106494         0.892541         1.346590
 C         3.292246         1.160114         0.397313
 O         4.598210         1.405205         0.998410
 C         2.653023         2.145455        -0.583344
 C         1.996024         0.835426        -1.157828
 C         3.189754        -0.183066        -0.601804
 O         2.233841        -1.176984        -0.078864
 H        -0.359274        -0.898713         0.776288
 H        -0.605444         0.625614        -0.166361
 H        -0.559056        -1.038509        -0.904683
 H         1.574897         1.808895         1.548315
 H         2.250787         0.205172         2.167041
 H         4.452027         1.649830         1.923829
 H         2.009188         2.981295        -0.203986
 H         3.299900         2.560134        -1.401817
 H         1.432898         0.725404        -2.079540
 H         4.136167        -0.615687        -1.116405
