19
Iteration:  2021
 C        -0.011945        -0.571265         0.088432
 C         1.319239         0.090664         0.062403
 C         2.143711         0.700426         1.296433
 C         3.247445         1.215507         0.426089
 O         4.477458         1.456357         0.961699
 C         2.659743         2.184399        -0.603232
 C         1.940020         0.866901        -1.204874
 C         3.110142        -0.013824        -0.679504
 O         2.323552        -1.106451        -0.114955
 H        -0.002769        -1.481371         0.783135
 H        -0.615694         0.089009         0.690208
 H        -0.348080        -0.630076        -0.949344
 H         1.678579         1.577418         1.980278
 H         2.358156        -0.271792         1.686514
 H         4.522130         1.221378         1.841423
 H         1.901654         2.853488        -0.195012
 H         3.445737         2.540949        -1.311734
 H         1.276559         0.794489        -2.127146
 H         4.024983        -0.207930        -1.387447
