19
Iteration:  3991
 C        -0.068677        -0.505776         0.233550
 C         1.401045         0.043127         0.089810
 C         2.070293         0.767988         1.214382
 C         3.326296         1.143239         0.393370
 O         4.474118         1.627865         0.970177
 C         2.567684         2.067549        -0.564806
 C         1.915547         0.854268        -1.091031
 C         3.202024        -0.092562        -0.752099
 O         2.343966        -1.145531        -0.222380
 H        -0.150396        -1.512738         0.636188
 H        -0.676068         0.289814         0.694373
 H        -0.389076        -0.419833        -0.856180
 H         1.628011         1.606195         1.601631
 H         2.155406         0.055537         2.094152
 H         4.775466         0.885958         1.648706
 H         1.925407         2.802600        -0.089639
 H         3.090289         2.532346        -1.413753
 H         1.409816         0.938983        -2.057616
 H         4.131548        -0.472036        -1.313973
