19
Iteration:  4194
 C        -0.026021        -0.578446         0.210065
 C         1.348650         0.032538         0.140753
 C         1.993059         0.845682         1.264608
 C         3.242828         1.174168         0.356165
 O         4.506582         1.474952         1.002262
 C         2.624581         2.138451        -0.640625
 C         1.904462         0.856701        -1.102564
 C         3.191169         0.005110        -0.757081
 O         2.368581        -1.114939        -0.193840
 H         0.000149        -1.493014         0.852937
 H        -0.595317         0.104234         0.915198
 H        -0.511321        -0.808239        -0.838529
 H         1.530769         1.815459         1.598617
 H         2.231971         0.097394         1.986553
 H         4.833864         0.571414         1.195994
 H         2.134335         3.115273        -0.356443
 H         3.418755         2.445365        -1.350727
 H         1.415973         0.783633        -2.064278
 H         4.149628        -0.323025        -1.339872
