19
Iteration:  4176
 C         0.007109        -0.472155         0.253902
 C         1.385984        -0.016024         0.063067
 C         2.083166         0.707932         1.259210
 C         3.231703         1.195304         0.417960
 O         4.485610         1.385737         0.949864
 C         2.575353         2.113298        -0.699385
 C         1.913020         0.814742        -1.185462
 C         3.110416         0.081274        -0.656878
 O         2.410356        -0.997389        -0.160368
 H        -0.102072        -1.170841         1.050039
 H        -0.762305         0.245801         0.460471
 H        -0.358218        -0.959080        -0.725905
 H         1.414039         1.427489         1.638458
 H         2.253713         0.022735         2.212857
 H         4.756433         0.710647         1.600207
 H         1.962992         2.934244        -0.343439
 H         3.280536         2.618360        -1.382341
 H         1.444063         0.717617        -2.150150
 H         4.055518        -0.094428        -1.235001
