19
Iteration:   440charge 0 multiplicity 1
 C        -0.154411        -0.436509         0.156223
 C         1.342952         0.016355         0.060865
 C         2.036740         0.828406         1.242270
 C         3.253090         1.086225         0.410599
 O         4.470095         1.340143         1.057482
 C         2.702882         2.093351        -0.582566
 C         1.973340         0.824345        -1.171895
 C         3.147812         0.017621        -0.733173
 O         2.424248        -1.071892        -0.223155
 H        -0.332309        -0.813702         1.238899
 H        -0.803945         0.451853        -0.137031
 H        -0.309990        -1.265211        -0.479188
 H         1.497626         1.673835         1.479530
 H         2.192045         0.250151         2.153372
 H         4.397584         1.614641         2.057261
 H         2.235260         3.049469        -0.353894
 H         3.557650         2.411746        -1.184030
 H         1.478910         1.072502        -2.228600
 H         4.109378        -0.151009        -1.297518
