19
Iteration:  4096charge 0 multiplicity 1
 C        -0.097574        -0.463160         0.270593
 C         1.355848        -0.019798         0.083152
 C         2.148617         0.583168         1.235034
 C         3.267641         1.160341         0.406799
 O         4.475864         1.568950         0.967696
 C         2.598439         2.128757        -0.592089
 C         1.987071         0.846919        -1.156325
 C         3.134809         0.041913        -0.699466
 O         2.325905        -1.102956        -0.240474
 H        -0.583575        -0.355943         1.292606
 H        -0.693380         0.203489        -0.443799
 H        -0.136744        -1.583203         0.000035
 H         1.676262         1.420029         1.781272
 H         2.682940        -0.269078         1.647861
 H         4.495537         1.460648         1.922184
 H         2.040277         3.091722        -0.445570
 H         3.444519         2.350130        -1.278980
 H         1.417722         0.833676        -2.103887
 H         4.046526        -0.188932        -1.393460
