19
Iteration:  4260charge 0 multiplicity 1
 C        -0.084903        -0.370910         0.281404
 C         1.403526        -0.114786         0.096212
 C         2.070120         0.654229         1.314649
 C         3.246107         1.175679         0.358331
 O         4.456212         1.575920         0.954463
 C         2.571661         2.151628        -0.643495
 C         1.970370         0.772241        -1.215603
 C         3.174612        -0.009387        -0.703115
 O         2.367277        -1.107125        -0.212935
 H        -0.336945        -1.371773         0.614737
 H        -0.362080         0.476382         0.930055
 H        -0.400526        -0.352225        -0.813235
 H         1.468802         1.467308         1.752760
 H         2.403187        -0.133273         1.940514
 H         4.752464         1.020600         1.759648
 H         1.931055         2.945530        -0.155032
 H         3.439803         2.551768        -1.216140
 H         1.444252         0.729102        -2.144448
 H         4.221991        -0.183616        -1.210875
