19
Iteration:   982charge 0 multiplicity 1
 C        -0.093954        -0.341940         0.230743
 C         1.359502         0.051633         0.084739
 C         2.047324         0.735179         1.235286
 C         3.345725         1.084487         0.436152
 O         4.517090         1.496893         1.151074
 C         2.616578         2.119241        -0.676074
 C         2.002804         0.787478        -1.198017
 C         3.212593        -0.115720        -0.787982
 O         2.272037        -1.102565        -0.265969
 H        -0.194121        -0.612514         1.220661
 H        -0.882436         0.389024        -0.165591
 H        -0.366477        -1.233109        -0.464907
 H         1.664766         1.582326         1.808787
 H         2.157337        -0.137676         1.937163
 H         4.166777         2.117137         1.920208
 H         1.869368         2.798177        -0.297012
 H         3.382214         2.479791        -1.311894
 H         1.610621         0.612331        -2.162379
 H         4.042111        -0.398445        -1.357382
