19
Iteration:  1023charge 0 multiplicity 1
 C        -0.151868        -0.396974         0.120760
 C         1.307317        -0.000449         0.103410
 C         1.985961         0.778355         1.284870
 C         3.266760         1.129201         0.424234
 O         4.565773         1.392812         0.983151
 C         2.620701         2.130734        -0.665279
 C         2.011043         0.819788        -1.138981
 C         3.176444         0.002477        -0.690998
 O         2.437756        -1.109636        -0.161059
 H        -0.630397        -0.865240         0.978095
 H        -0.665381         0.596873        -0.051326
 H        -0.422106        -0.975675        -0.866550
 H         1.441212         1.581630         1.683546
 H         2.199220         0.060218         2.135966
 H         4.441377         1.521890         1.879889
 H         1.990727         3.000584        -0.344873
 H         3.554831         2.309566        -1.222089
 H         1.407651         0.698125        -2.036004
 H         3.997290        -0.267871        -1.377307
