19
Iteration:  1168
 C        -0.115275        -0.392896         0.033193
 C         1.360567        -0.043085         0.152402
 C         2.040212         0.732025         1.308377
 C         3.247810         1.180608         0.493547
 O         4.519410         1.514824         0.927454
 C         2.674680         2.094965        -0.617086
 C         1.984397         0.805426        -1.094478
 C         3.120475        -0.042630        -0.638478
 O         2.346115        -1.061945        -0.212002
 H        -0.656271        -0.670170         0.859769
 H        -0.615271         0.519097        -0.402409
 H        -0.302232        -1.078173        -0.824005
 H         1.551799         1.553537         1.735157
 H         2.340729        -0.057017         2.098672
 H         4.886415         0.714963         1.487993
 H         2.131701         2.931377        -0.154377
 H         3.458017         2.297384        -1.342905
 H         1.555491         0.583779        -2.103280
 H         4.004633        -0.294599        -1.259319
