19
Iteration:  1340
 C        -0.052806        -0.420587         0.049288
 C         1.327971         0.012245         0.118347
 C         2.074985         0.760739         1.227201
 C         3.306543         1.071205         0.412851
 O         4.562490         1.482618         0.995308
 C         2.543534         2.116159        -0.529654
 C         1.939887         0.851267        -1.123824
 C         3.186505        -0.063563        -0.720752
 O         2.333940        -1.036597        -0.163616
 H        -0.670012        -0.718148         0.962126
 H        -0.740424         0.506264        -0.136796
 H        -0.128410        -1.292944        -0.791080
 H         1.647922         1.669134         1.606930
 H         2.155092         0.119710         2.079719
 H         4.799910         0.634936         1.508618
 H         1.885161         2.865389         0.058381
 H         3.177911         2.753208        -1.206798
 H         1.559228         0.609660        -2.101390
 H         4.014213        -0.455388        -1.298418
