19
Iteration:  1015
 C        -0.163550        -0.360178         0.094974
 C         1.385030        -0.039018         0.117287
 C         2.003493         0.753502         1.285242
 C         3.236647         1.194510         0.411694
 O         4.493422         1.390604         0.994786
 C         2.678793         2.120679        -0.660538
 C         1.975594         0.782634        -1.123683
 C         3.199705        -0.029229        -0.752127
 O         2.387713        -1.075442        -0.152026
 H        -0.494052        -0.748873         1.030120
 H        -0.697994         0.656050         0.033629
 H        -0.384095        -1.213458        -0.642507
 H         1.514051         1.458669         1.889866
 H         2.406379        -0.063297         1.892559
 H         4.425086         1.602251         1.909479
 H         2.230075         3.016893        -0.313829
 H         3.446922         2.522620        -1.259577
 H         1.533420         0.670204        -2.077671
 H         4.093551        -0.269270        -1.234257
