19
Iteration:  1947charge 0 multiplicity 1
 C        -0.071639        -0.451205         0.243476
 C         1.337011         0.017472        -0.001641
 C         2.119686         0.667063         1.247169
 C         3.244608         1.147821         0.396664
 O         4.441395         1.564816         1.122852
 C         2.594586         2.075870        -0.592148
 C         2.008023         0.831623        -1.186320
 C         3.173932         0.003133        -0.779925
 O         2.300670        -1.053950        -0.228440
 H        -0.253347        -0.546328         1.358261
 H        -0.779399         0.298810        -0.045013
 H        -0.187693        -1.415768        -0.324778
 H         1.851691         1.350036         1.889247
 H         2.635302        -0.251065         1.682096
 H         4.981373         0.781492         1.326437
 H         1.902514         2.850704        -0.211926
 H         3.365392         2.502375        -1.297107
 H         1.487344         0.812890        -2.214087
 H         4.199316        -0.295378        -1.212164
