19
Iteration:   525
 C        -0.064101        -0.317456         0.122514
 C         1.347293        -0.036388        -0.024144
 C         2.046044         0.765529         1.160902
 C         3.296833         1.180715         0.462810
 O         4.505868         1.429639         1.131735
 C         2.647969         2.081422        -0.575951
 C         1.942265         0.773337        -1.164973
 C         3.189264        -0.066759        -0.662814
 O         2.302595        -1.148043        -0.242954
 H        -0.293637        -1.307481         0.651083
 H        -0.452021         0.376298         0.928540
 H        -0.712831        -0.437480        -0.734174
 H         1.522888         1.885149         1.488692
 H         2.153588         0.154263         2.130418
 H         4.701239         2.292525         1.365882
 H         2.069935         2.918472        -0.104635
 H         3.504233         2.347232        -1.245160
 H         1.555636         0.830630        -2.192577
 H         4.107120        -0.388584        -1.141259
