19
Iteration:    66charge 0 multiplicity 1
 C        -0.120114        -0.319380         0.047732
 C         1.338456        -0.012775         0.065098
 C         2.045950         0.756905         1.253575
 C         3.216086         1.168892         0.470681
 O         4.469861         1.359777         1.091159
 C         2.753889         2.084554        -0.662884
 C         2.050184         0.896003        -1.194731
 C         3.106613        -0.070066        -0.642269
 O         2.315005        -1.149494        -0.093332
 H        -0.405771        -0.827481         0.906161
 H        -0.547480         0.641890        -0.118216
 H        -0.482133        -0.989484        -0.711988
 H         1.452801         1.531524         1.695467
 H         2.353700        -0.022581         1.927031
 H         4.943761         2.069428         0.512751
 H         2.186083         2.977540        -0.369904
 H         3.553111         2.388888        -1.342898
 H         1.628820         0.936190        -2.186777
 H         4.020656        -0.377334        -1.120472
