19
Iteration:  2227
 C        -0.028701        -0.408280         0.277876
 C         1.348768        -0.054712         0.001038
 C         2.109434         0.660410         1.200870
 C         3.300876         1.193894         0.456112
 O         4.418402         1.611475         1.107344
 C         2.643284         2.115317        -0.627049
 C         1.982521         0.860498        -1.176294
 C         3.139991        -0.054119        -0.737000
 O         2.315403        -1.124895        -0.279669
 H         0.034267        -1.369511         0.865114
 H        -0.566785         0.211217         1.100411
 H        -0.551117        -0.684561        -0.655967
 H         1.527686         1.495240         1.519444
 H         2.404528        -0.136142         1.915383
 H         4.775328         0.895735         1.653254
 H         2.053151         2.920112        -0.139240
 H         3.371625         2.543661        -1.353741
 H         1.453292         0.719672        -2.129452
 H         3.759588        -0.375148        -1.578493
