19
Iteration:  2401charge 0 multiplicity 1
 C        -0.077008        -0.458044         0.149961
 C         1.318616         0.014491         0.083117
 C         2.185782         0.606698         1.305741
 C         3.237253         1.185435         0.441269
 O         4.457386         1.508980         0.960417
 C         2.609025         2.091515        -0.588137
 C         1.926411         0.836201        -1.182856
 C         3.097642         0.021601        -0.678021
 O         2.409544        -1.028188        -0.239732
 H        -0.083117        -1.077204         1.055888
 H        -0.823914         0.366675         0.021613
 H        -0.440509        -1.038345        -0.704728
 H         1.808864         1.271659         2.055159
 H         2.572212        -0.333444         2.023950
 H         4.672939         1.078706         1.843623
 H         2.044620         3.035596        -0.296876
 H         3.375275         2.331693        -1.412851
 H         1.366814         0.844172        -2.100133
 H         4.020000         0.012704        -1.205530
