19
Iteration:  3697charge 0 multiplicity 1
 C        -0.036538        -0.523307         0.286451
 C         1.380064        -0.037306         0.085421
 C         2.037873         0.819585         1.217810
 C         3.307583         1.103510         0.356527
 O         4.499167         1.480618         1.101230
 C         2.640195         2.156370        -0.642444
 C         1.923199         0.816873        -1.107947
 C         3.159057        -0.003876        -0.754426
 O         2.315488        -1.133252        -0.245473
 H         0.182461        -1.656940         0.529037
 H        -0.480335         0.139666         1.063967
 H        -0.633193        -0.571990        -0.730894
 H         1.271150         1.681779         1.307531
 H         2.170078         0.346020         2.128554
 H         4.696962         2.475499         0.974844
 H         1.890675         2.913624        -0.291926
 H         3.407367         2.647537        -1.314760
 H         1.458303         0.482477        -2.064772
 H         4.024487        -0.252099        -1.396844
