19
Iteration:  1901
 C        -0.085436        -0.455845         0.116392
 C         1.395933        -0.046732         0.075153
 C         2.070171         0.702877         1.360971
 C         3.247720         1.120592         0.431668
 O         4.468809         1.520317         0.941426
 C         2.677752         2.084664        -0.604861
 C         1.879279         0.863811        -1.134693
 C         3.119279         0.057599        -0.690495
 O         2.428531        -1.111613        -0.234849
 H        -0.382573        -1.009243         1.110526
 H        -0.683860         0.491481         0.322163
 H        -0.430722        -0.964325        -0.800870
 H         1.483426         1.524846         1.609871
 H         2.402550         0.003744         2.123891
 H         4.491890         1.205000         1.932571
 H         2.188076         2.969715        -0.101285
 H         3.469255         2.357697        -1.380223
 H         1.424303         0.884166        -2.149010
 H         3.984982        -0.172955        -1.438360
