19
Iteration:   600charge 0 multiplicity 1
 C        -0.108145        -0.465704         0.085600
 C         1.373037        -0.007738         0.075537
 C         1.943627         0.861662         1.272745
 C         3.318178         1.097317         0.404923
 O         4.580203         1.325676         0.991801
 C         2.611999         2.102000        -0.556870
 C         2.012357         0.883542        -1.182243
 C         3.191070        -0.033201        -0.694298
 O         2.337358        -1.053626        -0.170058
 H        -0.730566        -0.840330         0.938131
 H        -0.740159         0.464604        -0.098041
 H        -0.373827        -1.355229        -0.557040
 H         1.402134         1.724581         1.553248
 H         2.060943         0.446973         2.279648
 H         4.449020         1.740935         1.957267
 H         2.037182         2.984452        -0.145608
 H         3.280602         2.502861        -1.376786
 H         1.693951         0.863444        -2.211615
 H         4.101122        -0.394667        -1.165603
