19
Iteration:   644
 C        -0.092482        -0.396576         0.038583
 C         1.358298         0.003492         0.104937
 C         2.082936         0.716142         1.333749
 C         3.221244         1.136945         0.418906
 O         4.513838         1.376655         1.028738
 C         2.702748         2.098198        -0.741895
 C         1.960497         0.826331        -1.137326
 C         3.145291         0.004227        -0.649717
 O         2.327150        -1.029101        -0.155256
 H        -0.548650        -1.027426         0.873490
 H        -0.634653         0.607943         0.041338
 H        -0.083877        -1.103119        -0.840933
 H         1.579489         1.422664         1.918595
 H         2.312639        -0.081356         2.053429
 H         4.497585         1.785895         1.980131
 H         1.955068         2.902235        -0.451048
 H         3.491064         2.489349        -1.432691
 H         1.383292         0.879235        -2.084732
 H         4.010066        -0.350978        -1.250546
