19
Iteration:  3406charge 0 multiplicity 1
 C        -0.009817        -0.585018         0.280891
 C         1.348766        -0.026706         0.080390
 C         2.000719         0.756450         1.211432
 C         3.285982         1.162265         0.352581
 O         4.536294         1.320801         1.024829
 C         2.598672         2.187813        -0.529139
 C         1.887074         0.821515        -1.117727
 C         3.160816         0.084154        -0.787770
 O         2.405428        -1.008201        -0.245298
 H         0.072237        -1.060607         1.284164
 H        -0.837010         0.268073         0.254685
 H        -0.198206        -1.219382        -0.589699
 H         1.336903         1.457991         1.500689
 H         2.320729         0.056183         2.020416
 H         4.373157         2.234340         1.503986
 H         1.944549         2.953118        -0.101004
 H         3.147874         2.503126        -1.425192
 H         1.453878         0.924120        -2.214719
 H         4.015862        -0.177262        -1.405696
