19
Iteration:  2729charge 0 multiplicity 1
 C        -0.063254        -0.469640         0.156895
 C         1.373345        -0.045192         0.096674
 C         2.022916         0.686973         1.260464
 C         3.327662         1.183804         0.327345
 O         4.526190         1.549047         1.017032
 C         2.520987         2.096173        -0.477575
 C         1.898172         0.886064        -1.080589
 C         3.193363         0.005052        -0.701401
 O         2.377714        -1.119424        -0.271783
 H        -0.242150        -0.863822         1.149552
 H        -0.639792         0.433318        -0.094234
 H        -0.462297        -1.120903        -0.608725
 H         1.591561         1.595868         1.526824
 H         2.457802        -0.031038         2.016696
 H         5.056023         0.643387         1.133570
 H         1.971267         2.914966         0.040413
 H         3.164937         2.528186        -1.251893
 H         1.380300         0.891286        -2.076708
 H         3.940944        -0.227034        -1.549898
