19
Iteration:  1717
 C        -0.028605        -0.470833         0.092486
 C         1.360706         0.075910         0.094857
 C         2.096765         0.706693         1.234221
 C         3.304397         1.115997         0.388180
 O         4.500636         1.506829         1.033458
 C         2.619366         2.174892        -0.576908
 C         1.923895         0.839157        -1.095472
 C         3.135830        -0.063107        -0.748227
 O         2.307594        -1.085895        -0.196375
 H        -0.210795        -0.941411         1.069430
 H        -0.768016         0.287070         0.047322
 H        -0.163150        -1.151899        -0.702388
 H         1.651537         1.478471         1.788705
 H         2.475297        -0.175714         1.924126
 H         4.447520         1.220825         1.895047
 H         2.053011         2.895333        -0.046131
 H         3.320265         2.573185        -1.275839
 H         1.354338         0.770462        -2.105590
 H         3.918980        -0.476926        -1.470863
