19
Iteration:  2270
 C        -0.059353        -0.489139         0.100216
 C         1.350791        -0.004456         0.066477
 C         2.089070         0.707029         1.274566
 C         3.280353         1.164056         0.393070
 O         4.511989         1.536441         0.949427
 C         2.613192         2.159602        -0.547299
 C         1.926664         0.869335        -1.062325
 C         3.087228        -0.025618        -0.754625
 O         2.374503        -1.110005        -0.167003
 H        -0.185274        -1.462875         0.588951
 H        -0.589527         0.158536         0.891291
 H        -0.445653        -0.556197        -0.922892
 H         1.444343         1.467387         1.529828
 H         2.393838         0.016139         2.127758
 H         4.696755         0.939926         1.607670
 H         1.967119         3.022367        -0.276679
 H         3.460318         2.358636        -1.246512
 H         1.564238         0.708089        -2.079780
 H         4.013006        -0.284974        -1.192722
