19
Iteration:  4962charge 0 multiplicity 1
 C        -0.034982        -0.564531         0.235617
 C         1.369105        -0.037031         0.079589
 C         2.163638         0.631159         1.255602
 C         3.301389         1.087109         0.347687
 O         4.541771         1.533118         1.062773
 C         2.571906         2.238536        -0.549173
 C         1.901679         0.898884        -1.079538
 C         3.105390         0.000278        -0.745677
 O         2.253969        -1.066654        -0.286991
 H        -0.710198         0.209870         0.686774
 H        -0.500834        -0.946790        -0.718126
 H        -0.046141        -1.387901         0.940176
 H         1.789031         1.440505         1.872406
 H         2.461804        -0.246552         1.960373
 H         5.010548         2.204289         0.389910
 H         2.130394         3.116049        -0.042123
 H         3.277689         2.554125        -1.416891
 H         1.480473         0.613765        -2.011078
 H         3.792358        -0.319439        -1.411149
