19
Iteration:  1975charge 0 multiplicity 1
 C        -0.048484        -0.441568         0.189989
 C         1.379242        -0.091494         0.084826
 C         1.949185         0.706594         1.294036
 C         3.248393         1.119139         0.390613
 O         4.512394         1.528020         1.052131
 C         2.658704         2.140415        -0.641823
 C         1.923071         0.900051        -1.093356
 C         3.102744         0.061771        -0.763487
 O         2.426263        -1.160393        -0.257240
 H        -0.210413        -0.700328         1.243875
 H        -0.758336         0.407312        -0.008156
 H        -0.276194        -1.215217        -0.521857
 H         1.338425         1.711155         1.709946
 H         2.328363         0.106767         2.067988
 H         4.952301         0.788972         1.358803
 H         2.089441         2.896836        -0.110230
 H         3.406659         2.342143        -1.419566
 H         1.497573         0.819482        -2.059205
 H         4.018101        -0.024576        -1.321957
