19
Iteration:  1430charge 0 multiplicity 1
 C        -0.073965        -0.438159         0.167576
 C         1.387490         0.036383         0.042172
 C         2.130684         0.703191         1.277960
 C         3.262816         1.124866         0.357833
 O         4.489967         1.505580         1.088537
 C         2.628883         2.085604        -0.685030
 C         2.002759         0.849163        -1.168168
 C         3.182361         0.005781        -0.710361
 O         2.229378        -1.090054        -0.190254
 H         0.032868        -1.391254         0.742076
 H        -0.784700         0.285937         0.816013
 H        -0.379251        -0.546001        -0.977579
 H         1.714898         1.443228         1.852664
 H         2.365322        -0.200425         1.918804
 H         4.410261         1.105325         1.958018
 H         1.957615         2.930326        -0.268288
 H         3.362619         2.661555        -1.344944
 H         1.405312         0.849057        -2.118550
 H         4.109964        -0.430928        -1.148957
