19
Iteration:  3671
 C        -0.096131        -0.493013         0.307423
 C         1.357540        -0.020866         0.019199
 C         2.115696         0.667812         1.320331
 C         3.270806         1.150743         0.407222
 O         4.430134         1.582336         1.075112
 C         2.692916         2.069754        -0.703460
 C         1.930674         0.885153        -1.165868
 C         3.164127        -0.070273        -0.727265
 O         2.335835        -1.094243        -0.260675
 H         0.073757        -1.412204         0.646160
 H        -0.532125         0.262696         0.909875
 H        -0.676762        -0.633294        -0.574448
 H         1.381645         1.382904         1.722602
 H         2.490509        -0.112098         2.151479
 H         4.658768         2.592608         0.997106
 H         2.091495         2.923967        -0.390094
 H         3.456092         2.400775        -1.378823
 H         1.480434         0.778990        -2.119034
 H         4.048651        -0.514083        -1.297129
