19
Iteration:  4876charge 0 multiplicity 1
 C        -0.054224        -0.524541         0.259358
 C         1.390634        -0.042601         0.130780
 C         2.110861         0.665440         1.295934
 C         3.300717         1.097220         0.414205
 O         4.549458         1.484645         0.896317
 C         2.538541         2.120887        -0.584392
 C         1.944709         0.972066        -1.148840
 C         3.114258         0.067470        -0.791890
 O         2.336956        -1.073480        -0.212019
 H        -0.730372         0.347964         0.205602
 H        -0.321947        -1.216757        -0.567995
 H        -0.151172        -1.175639         1.065678
 H         1.657563         1.533970         1.601986
 H         2.307735        -0.068443         2.065493
 H         4.579983         1.074954         1.758879
 H         1.964419         2.887502        -0.061028
 H         3.096521         2.718461        -1.302671
 H         1.314537         0.910826        -1.999985
 H         3.917358        -0.107068        -1.433515
