19
Iteration:  3427
 C        -0.055295        -0.657238         0.204657
 C         1.384249         0.020165         0.082122
 C         2.131598         0.699020         1.297292
 C         3.233101         1.170734         0.478300
 O         4.457507         1.330732         0.977523
 C         2.604149         2.225346        -0.718187
 C         1.926939         0.959602        -1.155246
 C         3.105589         0.072380        -0.711713
 O         2.382031        -1.044405        -0.193932
 H         0.094759        -1.382316         1.010924
 H        -0.700270         0.111429         0.712844
 H        -0.337658        -0.952249        -0.779153
 H         1.618971         1.457993         1.848246
 H         2.540008        -0.176271         1.960685
 H         4.648015         2.105717         1.400201
 H         1.861135         2.971272        -0.451728
 H         3.435637         2.562372        -1.350045
 H         1.394778         0.871901        -2.213470
 H         4.004025        -0.280033        -1.215245
