19
Iteration:  4901charge 0 multiplicity 1
 C        -0.082519        -0.325302         0.275492
 C         1.381949        -0.062530         0.081091
 C         2.180203         0.605162         1.252222
 C         3.248316         1.224660         0.390424
 O         4.559629         1.417774         0.931007
 C         2.422481         2.130777        -0.526430
 C         1.894274         0.816027        -1.123186
 C         3.156970         0.024278        -0.749236
 O         2.424974        -1.087872        -0.297708
 H        -0.738155         0.552443         0.149777
 H        -0.372855        -1.110739        -0.443073
 H        -0.151607        -0.924287         1.207108
 H         1.557605         1.335188         1.870858
 H         2.614318        -0.203431         1.760988
 H         4.337327         1.918628         1.817540
 H         2.026571         2.944568         0.136406
 H         2.976076         2.628673        -1.314315
 H         1.390757         0.612731        -2.086245
 H         4.149795        -0.238854        -1.257623
