19
Iteration:  4426
 C        -0.080710        -0.453197         0.153458
 C         1.404628        -0.049394         0.092112
 C         2.160910         0.653135         1.312812
 C         3.345834         1.108871         0.417795
 O         4.518723         1.551688         0.908211
 C         2.567319         2.129655        -0.503790
 C         1.923144         0.904432        -1.062563
 C         3.167524        -0.020175        -0.804426
 O         2.255806        -1.129173        -0.265984
 H        -0.805875         0.168637         0.694947
 H        -0.534415        -0.669392        -0.800924
 H        -0.117386        -1.367493         0.862588
 H         1.497112         1.465057         1.588154
 H         2.477893        -0.002477         2.181061
 H         4.362607         1.970612         1.811770
 H         1.959225         2.980216        -0.152127
 H         3.245369         2.543854        -1.292010
 H         1.499983         0.965864        -1.981007
 H         4.120264        -0.344819        -1.272617
