19
Iteration:   971
 C        -0.134808        -0.379465         0.239529
 C         1.329544         0.015620        -0.016928
 C         2.083057         0.737251         1.261625
 C         3.313339         1.185837         0.444872
 O         4.505889         1.487033         1.135514
 C         2.711280         2.049928        -0.601179
 C         2.037776         0.762073        -1.203255
 C         3.167695        -0.088649        -0.782979
 O         2.289970        -1.092930        -0.284515
 H        -0.370605        -0.632041         1.210545
 H        -0.785286         0.561651         0.102995
 H        -0.378019        -1.332338        -0.382137
 H         1.382270         1.587004         1.451267
 H         2.314290         0.184255         2.216424
 H         4.332909         2.141905         1.817292
 H         2.029385         2.777082        -0.174941
 H         3.151758         2.597837        -1.380801
 H         1.487168         0.672411        -2.098455
 H         3.973165        -0.507156        -1.293832
