19
Iteration:  4678
 C         0.007439        -0.570870         0.272463
 C         1.396777         0.062032         0.120605
 C         2.063201         0.744320         1.179330
 C         3.263380         1.154896         0.406569
 O         4.524518         1.221364         0.963368
 C         2.600081         2.219712        -0.623651
 C         1.820461         0.897632        -1.169424
 C         3.106620         0.144511        -0.753809
 O         2.411036        -1.037606        -0.182049
 H        -0.832287         0.156775         0.527182
 H        -0.090025        -1.202853        -0.637076
 H        -0.005141        -1.164706         1.243334
 H         1.538095         1.526496         1.742821
 H         2.496325        -0.044083         1.959130
 H         4.416249         1.620147         1.912279
 H         1.843520         2.999819        -0.446657
 H         3.319726         2.492655        -1.470000
 H         1.166499         0.800108        -2.120516
 H         4.044747        -0.199488        -1.213230
