19
Iteration:   624
 C        -0.031452        -0.400446        -0.022303
 C         1.344842         0.134427         0.032129
 C         2.047378         0.681920         1.243281
 C         3.258143         1.181774         0.387397
 O         4.551218         1.291689         0.966698
 C         2.595085         2.190537        -0.609970
 C         1.961454         0.794220        -1.151180
 C         3.150834         0.004461        -0.605862
 O         2.349742        -1.076869        -0.040463
 H        -0.479845        -0.877976         0.956678
 H        -0.866909         0.363321        -0.171481
 H        -0.105425        -1.261141        -0.595717
 H         1.622040         1.598685         1.800612
 H         2.234840         0.040812         2.136302
 H         4.495931         1.483430         1.925447
 H         1.894538         3.042652        -0.319715
 H         3.408351         2.590635        -1.279185
 H         1.378733         0.591777        -2.133493
 H         4.050405        -0.301806        -1.232725
