19
Iteration:  1244
 C        -0.032290        -0.365256         0.288518
 C         1.333563         0.024982         0.030857
 C         1.986835         0.743649         1.184779
 C         3.259875         1.161312         0.424968
 O         4.415184         1.475203         1.120548
 C         2.749006         2.048115        -0.668321
 C         1.965283         0.845575        -1.155271
 C         3.158353        -0.015449        -0.733960
 O         2.384110        -1.137970        -0.293022
 H        -0.075994        -1.133299         0.952287
 H        -0.610757         0.408445         0.886249
 H        -0.732473        -0.565718        -0.583116
 H         1.286719         1.505327         1.519386
 H         2.282338         0.095009         2.201122
 H         4.520959         0.877919         1.797008
 H         2.219934         2.998736        -0.416263
 H         3.555359         2.446056        -1.320517
 H         1.628362         0.736174        -2.221084
 H         4.047824        -0.325880        -1.330197
