19
Iteration:   983
 C        -0.091654        -0.342276         0.226315
 C         1.368007         0.056549         0.088285
 C         2.047855         0.725879         1.227610
 C         3.344644         1.079343         0.430830
 O         4.516628         1.495551         1.150227
 C         2.604334         2.114746        -0.683861
 C         2.001034         0.795767        -1.195379
 C         3.210237        -0.115345        -0.777337
 O         2.271794        -1.106201        -0.261181
 H        -0.196229        -0.611273         1.223503
 H        -0.861437         0.393016        -0.168158
 H        -0.339155        -1.212145        -0.451650
 H         1.676592         1.624558         1.850935
 H         2.161226        -0.155124         1.905431
 H         4.149762         2.108903         1.924159
 H         1.883139         2.846997        -0.323884
 H         3.413064         2.499898        -1.278570
 H         1.617532         0.629520        -2.161688
 H         4.029716        -0.380445        -1.355077
