19
Iteration:  1315charge 0 multiplicity 1
 C        -0.102329        -0.392891         0.007382
 C         1.329327        -0.052303         0.117224
 C         2.019878         0.675202         1.326233
 C         3.262470         1.168738         0.440445
 O         4.575330         1.506429         0.912734
 C         2.716869         2.084365        -0.595073
 C         1.937746         0.896153        -1.125877
 C         3.082976        -0.013835        -0.646040
 O         2.382843        -1.109089        -0.163090
 H        -0.476427        -1.018637         0.881486
 H        -0.725826         0.431767         0.126659
 H        -0.278291        -0.929272        -0.891982
 H         1.302591         1.470313         1.749515
 H         2.262745         0.063197         2.123198
 H         4.606086         0.967072         1.656332
 H         2.201361         2.906732        -0.185620
 H         3.393540         2.470839        -1.326297
 H         1.401307         0.922032        -2.062152
 H         3.982912        -0.271866        -1.169915
