19
Iteration:  3020charge 0 multiplicity 1
 C        -0.028120        -0.436887         0.201237
 C         1.356894        -0.073812         0.055022
 C         2.096577         0.669308         1.235699
 C         3.280130         1.115607         0.388167
 O         4.526164         1.541928         0.980950
 C         2.606158         2.124065        -0.503925
 C         1.864761         0.829959        -1.079296
 C         3.102524         0.024416        -0.748399
 O         2.386991        -1.119554        -0.325750
 H        -0.225161        -1.106165         1.000250
 H        -0.541250         0.397045         0.623675
 H        -0.455996        -0.971348        -0.594987
 H         1.485794         1.543056         1.596727
 H         2.453038         0.076628         2.247085
 H         4.362257         1.768241         1.927154
 H         2.115346         2.939205         0.067163
 H         3.372631         2.498749        -1.225358
 H         1.463385         0.837335        -2.087681
 H         3.973388        -0.024137        -1.442141
