19
Iteration:  4868charge 0 multiplicity 1
 C        -0.007598        -0.542881         0.239442
 C         1.379967        -0.058918         0.122879
 C         2.092340         0.686060         1.267835
 C         3.297823         1.140135         0.367799
 O         4.530138         1.489206         0.902443
 C         2.595752         2.154788        -0.533090
 C         1.854529         0.918127        -1.118618
 C         3.093240         0.016962        -0.785823
 O         2.328926        -1.033880        -0.225522
 H        -0.821149         0.216191         0.349216
 H        -0.133716        -1.148669        -0.687590
 H        -0.054982        -1.196668         1.128150
 H         1.518669         1.569849         1.707806
 H         2.385777         0.113854         2.113268
 H         4.680930         0.901172         1.602070
 H         2.215918         3.026240         0.065546
 H         3.313104         2.506543        -1.283558
 H         1.395017         0.996903        -2.087725
 H         4.039232        -0.284099        -1.282100
