19
Iteration:  1692
 C        -0.095149        -0.508229         0.220139
 C         1.373235        -0.014193         0.066547
 C         2.048663         0.764440         1.174601
 C         3.312172         1.108634         0.416780
 O         4.494743         1.534942         1.096763
 C         2.691491         2.108643        -0.588857
 C         1.961223         0.848048        -1.146800
 C         3.102105        -0.024403        -0.766765
 O         2.357382        -1.074935        -0.280102
 H        -0.314613        -1.223869         0.985540
 H        -0.633696         0.368227         0.705829
 H        -0.549651        -0.800811        -0.692230
 H         1.446385         1.714342         1.402393
 H         2.252983         0.202193         2.217155
 H         4.562802         0.838964         1.775126
 H         2.017199         2.889552        -0.182976
 H         3.515950         2.491262        -1.217843
 H         1.383785         0.748825        -1.995914
 H         3.922902        -0.228316        -1.388327
