19
Iteration:  3689charge 0 multiplicity 1
 C        -0.008467        -0.523768         0.295115
 C         1.362101        -0.047393         0.155166
 C         2.045271         0.812909         1.162996
 C         3.278501         1.165736         0.398589
 O         4.487436         1.519237         1.094830
 C         2.662500         2.123331        -0.588557
 C         1.978812         0.776852        -1.145105
 C         3.155930        -0.026739        -0.775429
 O         2.287213        -1.143627        -0.290047
 H        -0.028714        -1.703206         0.674937
 H        -0.611520         0.171767         0.988493
 H        -0.620348        -0.406658        -0.609036
 H         1.505339         1.675206         1.457917
 H         2.179279         0.141147         1.998067
 H         4.544758         2.576352         0.939753
 H         2.035729         3.001480        -0.335319
 H         3.443086         2.399590        -1.343079
 H         1.425477         0.624201        -2.137275
 H         3.996641        -0.115856        -1.352038
