19
Iteration:  1568
 C        -0.037195        -0.439837         0.194435
 C         1.354876        -0.002574         0.034814
 C         2.063175         0.681741         1.214217
 C         3.345598         1.190485         0.393923
 O         4.534291         1.476053         1.046407
 C         2.564968         2.093916        -0.558655
 C         1.976591         0.816894        -1.176449
 C         3.191167         0.012465        -0.733219
 O         2.272471        -1.092772        -0.214569
 H        -0.360318        -0.501038         1.257997
 H        -0.669752         0.400459        -0.112492
 H        -0.307533        -1.370883        -0.431617
 H         1.406129         1.638277         1.662306
 H         2.354135        -0.097752         1.926335
 H         4.327490         1.024847         1.911122
 H         1.959253         2.878305         0.014244
 H         3.241001         2.757793        -1.192211
 H         1.492066         0.827773        -2.207149
 H         4.101834        -0.175426        -1.382264
