19
Iteration:  2618charge 0 multiplicity 1
 C        -0.032513        -0.531221         0.233832
 C         1.380300         0.000416         0.065555
 C         2.087580         0.659542         1.272073
 C         3.286966         1.229974         0.448681
 O         4.468421         1.446591         1.029299
 C         2.651892         2.200314        -0.645000
 C         1.885441         0.886673        -1.170392
 C         3.118793         0.049227        -0.746654
 O         2.350076        -1.057239        -0.234629
 H        -0.041274        -1.421448         0.872545
 H        -0.795680         0.260111         0.740221
 H        -0.456823        -0.895302        -0.705609
 H         1.530321         1.345963         2.004836
 H         2.534863        -0.196675         1.843578
 H         4.650363         0.781349         1.614803
 H         2.050401         3.045531        -0.342489
 H         3.319985         2.261092        -1.512793
 H         1.566781         0.608831        -2.164692
 H         3.960986        -0.193579        -1.375037
