19
Iteration:  1839charge 0 multiplicity 1
 C        -0.068171        -0.489415         0.242369
 C         1.361690         0.020008         0.070698
 C         1.957682         0.739736         1.213308
 C         3.278189         1.148468         0.409499
 O         4.500960         1.532874         0.998768
 C         2.670157         2.082760        -0.574022
 C         1.996775         0.872392        -1.124661
 C         3.198026        -0.037423        -0.756924
 O         2.339236        -1.086235        -0.232114
 H         0.080667        -1.490752         0.558475
 H        -0.737986         0.064804         0.799139
 H        -0.541387        -0.548116        -0.737183
 H         1.291517         1.599048         1.499463
 H         2.137828         0.181750         2.238450
 H         4.693889         0.941112         1.814340
 H         2.104525         2.848716        -0.086936
 H         3.369336         2.404995        -1.318266
 H         1.374093         0.884869        -2.107195
 H         4.013674        -0.312399        -1.504434
