19
Iteration:   782
 C        -0.106616        -0.461214         0.049961
 C         1.343341         0.065311         0.071240
 C         2.070799         0.713950         1.265457
 C         3.268888         1.168717         0.503091
 O         4.568022         1.371080         0.972439
 C         2.620907         2.058484        -0.711234
 C         2.022681         0.825996        -1.142599
 C         3.139813         0.034996        -0.621732
 O         2.270549        -1.035844        -0.143458
 H        -0.529942        -0.646576         0.985736
 H        -0.563083         0.469758        -0.131606
 H        -0.297589        -1.333434        -0.578386
 H         1.518966         1.446993         2.000211
 H         2.292837        -0.153500         1.982355
 H         4.460639         1.708182         1.810313
 H         2.048249         2.914023        -0.426959
 H         3.444688         2.463848        -1.264578
 H         1.768651         0.746229        -2.203019
 H         4.080033        -0.103871        -1.220090
