19
Iteration:  1104
 C        -0.052144        -0.379928         0.236149
 C         1.358093        -0.038200         0.040998
 C         2.058465         0.761962         1.176499
 C         3.288615         1.178291         0.461551
 O         4.443028         1.532486         1.143774
 C         2.730961         2.093640        -0.700385
 C         2.015658         0.874414        -1.109387
 C         3.095575        -0.098309        -0.766572
 O         2.308289        -1.166642        -0.257733
 H        -0.042033        -1.292328         0.982572
 H        -0.605304         0.489217         0.731229
 H        -0.585132        -0.676667        -0.723596
 H         1.428781         1.613700         1.270716
 H         2.069350         0.258541         2.099477
 H         4.486382         1.098227         2.021935
 H         2.231715         3.009574        -0.417121
 H         3.466481         2.400190        -1.440154
 H         1.615320         0.799921        -2.177947
 H         3.929345        -0.503322        -1.401228
