19
Iteration:  4057
 C         0.010101        -0.524331         0.263309
 C         1.370802        -0.047877         0.095539
 C         2.074060         0.822314         1.209913
 C         3.265420         1.181609         0.394236
 O         4.497275         1.433959         1.029691
 C         2.538632         2.158455        -0.578162
 C         1.895265         0.842947        -1.156507
 C         3.162913         0.033827        -0.787222
 O         2.393549        -1.097596        -0.188069
 H        -0.510884        -0.532347         1.229988
 H        -0.680329         0.040610        -0.343205
 H         0.050029        -1.522842        -0.225049
 H         1.462028         1.661525         1.464480
 H         2.074057         0.219077         2.213167
 H         4.887927         0.593958         1.272696
 H         2.021108         2.982993        -0.104321
 H         3.192818         2.529822        -1.381661
 H         1.431813         0.955146        -2.154466
 H         3.973306        -0.157515        -1.539124
