19
Iteration:  3110charge 0 multiplicity 1
 C        -0.044145        -0.636786         0.184878
 C         1.319309         0.020394         0.098166
 C         2.110097         0.759229         1.277985
 C         3.290811         1.151171         0.376509
 O         4.545824         1.389765         0.990046
 C         2.585560         2.185387        -0.542270
 C         1.882344         0.928618        -1.112202
 C         3.170554         0.012615        -0.734072
 O         2.335606        -1.081738        -0.266792
 H        -0.000082        -1.525108         0.739766
 H        -0.791727         0.125694         0.566900
 H        -0.220339        -0.984467        -0.758857
 H         1.530193         1.734679         1.654579
 H         2.524450        -0.007620         2.099482
 H         4.454917         2.319058         1.451813
 H         2.029330         2.966397         0.010376
 H         3.180592         2.549061        -1.393343
 H         1.331608         0.962708        -2.052692
 H         4.043784        -0.368281        -1.292183
