19
Iteration:  3832
 C        -0.063661        -0.429066         0.280900
 C         1.403988        -0.035570         0.089704
 C         2.106353         0.666499         1.237344
 C         3.308124         1.149785         0.381492
 O         4.521196         1.510929         0.985018
 C         2.539591         2.150464        -0.595688
 C         1.906319         0.804106        -1.137282
 C         3.181157        -0.002925        -0.759856
 O         2.399598        -1.102546        -0.278865
 H        -0.407781        -0.862181         1.260896
 H        -0.761094         0.308042        -0.145105
 H        -0.421463        -1.215261        -0.281214
 H         1.444089         1.460672         1.530583
 H         2.285821         0.056148         2.065857
 H         4.283444         1.707349         1.996612
 H         1.830977         2.843032        -0.106244
 H         3.240939         2.744486        -1.199432
 H         1.166552         0.876327        -1.907320
 H         3.993966        -0.341324        -1.293203
