19
Iteration:  3848charge 0 multiplicity 1
 C        -0.052514        -0.512177         0.203716
 C         1.364640        -0.052736         0.109297
 C         2.082257         0.768945         1.200352
 C         3.292924         1.151568         0.360588
 O         4.546072         1.422609         0.996145
 C         2.536442         2.116315        -0.537296
 C         1.878819         0.866791        -1.102727
 C         3.139468         0.021420        -0.786059
 O         2.396288        -1.087789        -0.201416
 H        -0.117683        -0.980484         1.176211
 H        -0.668129         0.397910         0.253248
 H        -0.274245        -1.255320        -0.700926
 H         1.624197         1.666150         1.744204
 H         2.332947         0.140452         2.142016
 H         4.382647         2.158718         1.691408
 H         2.014375         2.936417        -0.030053
 H         3.039074         2.522048        -1.424253
 H         1.611625         0.674587        -2.169176
 H         4.034592        -0.192727        -1.586424
