19
Iteration:    24
 C        -0.147306        -0.325772        -0.093274
 C         1.344841        -0.018734         0.040590
 C         2.102576         0.886477         1.309463
 C         3.320486         1.141886         0.423049
 O         4.599461         1.393599         0.985404
 C         2.645270         2.122547        -0.582434
 C         2.002766         0.820996        -1.153669
 C         3.162683        -0.148828        -0.601605
 O         2.236678        -1.164157        -0.079962
 H        -0.555436        -0.820679         0.828005
 H        -0.737092         0.631754        -0.179212
 H        -0.339024        -0.915209        -0.953283
 H         1.502157         1.757717         1.647320
 H         2.265674         0.197496         2.144852
 H         4.507668         1.829937         1.916154
 H         1.957045         2.875034        -0.239382
 H         3.243854         2.551056        -1.355206
 H         1.538916         0.732940        -2.150004
 H         4.026266        -0.510984        -1.060239
