19
Iteration:   571
 C        -0.052854        -0.436575         0.178680
 C         1.374448         0.058209         0.005377
 C         2.037087         0.733286         1.222896
 C         3.243520         1.169228         0.409856
 O         4.463642         1.376902         1.136641
 C         2.782681         2.069279        -0.672549
 C         1.970561         0.872958        -1.186998
 C         3.106059        -0.002626        -0.666008
 O         2.282424        -1.079817        -0.209605
 H        -0.200728        -1.025993         1.182638
 H        -0.733409         0.458540         0.280386
 H        -0.358066        -1.053445        -0.617375
 H         1.338496         1.434807         1.997417
 H         2.517756        -0.155342         1.760766
 H         4.466418         2.184098         1.716457
 H         2.254083         2.980597        -0.363379
 H         3.506532         2.135294        -1.502418
 H         1.656705         0.765283        -2.312904
 H         4.032308        -0.291993        -1.279242
