19
Iteration:  1127
 C        -0.062010        -0.360813         0.238171
 C         1.326059         0.053418         0.047386
 C         2.064174         0.756531         1.224896
 C         3.318421         1.097101         0.354308
 O         4.387564         1.564518         1.127182
 C         2.688888         2.043877        -0.576202
 C         2.007388         0.752529        -1.214307
 C         3.223467        -0.083520        -0.759052
 O         2.302431        -1.085347        -0.245377
 H        -0.373044        -0.992766         1.221654
 H        -0.547986         0.648725         0.365339
 H        -0.519719        -0.758867        -0.665387
 H         1.654349         1.703487         1.608971
 H         2.076405         0.048994         1.961693
 H         4.720821         0.817357         1.635787
 H         1.996688         2.754024        -0.158685
 H         3.370847         2.656122        -1.176232
 H         1.544017         0.602363        -2.276059
 H         4.197932        -0.499443        -1.222095
