19
Iteration:  2173
 C        -0.024850        -0.500034         0.132385
 C         1.335984        -0.029707         0.108177
 C         2.131953         0.606970         1.266920
 C         3.245842         1.199257         0.408782
 O         4.547383         1.461744         0.985941
 C         2.564781         2.217691        -0.636170
 C         1.984527         0.857196        -1.181673
 C         3.101633         0.063762        -0.713172
 O         2.301913        -1.056630        -0.155312
 H        -0.232910        -0.971590         1.139323
 H        -0.732417         0.403318        -0.213729
 H        -0.143285        -1.375440        -0.515743
 H         1.576545         1.330493         2.107168
 H         2.410921        -0.298065         1.963849
 H         4.511688         0.962950         1.789160
 H         2.059119         3.111640        -0.278704
 H         3.291147         2.520117        -1.419267
 H         1.414312         0.633759        -2.115019
 H         4.135722        -0.020728        -1.184439
