19
Iteration:   693
 C        -0.088883        -0.382334         0.258834
 C         1.347582         0.057368        -0.006517
 C         2.061986         0.711215         1.195746
 C         3.251334         1.108682         0.412035
 O         4.449832         1.423639         1.134353
 C         2.689104         2.087809        -0.615894
 C         2.076277         0.807336        -1.288344
 C         3.196973        -0.042274        -0.717592
 O         2.255939        -1.049764        -0.210500
 H        -0.002270        -1.257744         0.847849
 H        -0.538839         0.354574         0.881554
 H        -0.659670        -0.645533        -0.562990
 H         1.356155         1.481656         1.640029
 H         2.192399        -0.038063         1.997616
 H         4.417145         2.230761         1.559842
 H         2.114075         2.906413        -0.261696
 H         3.541927         2.418649        -1.199930
 H         1.722774         0.586575        -2.277381
 H         4.107669        -0.442616        -1.080631
