19
Iteration:   203
 C        -0.106477        -0.311696        -0.058811
 C         1.315065         0.049329         0.065614
 C         2.018268         0.652472         1.355648
 C         3.289913         1.197545         0.474947
 O         4.571652         1.338228         1.026469
 C         2.661666         2.065685        -0.648677
 C         1.967274         0.768347        -1.118374
 C         3.138663         0.052919        -0.658158
 O         2.333547        -1.079964        -0.121174
 H        -0.508958        -0.775298         0.918363
 H        -0.619810         0.629482        -0.220183
 H        -0.485976        -1.116097        -0.768061
 H         1.509461         1.474004         2.002885
 H         2.259811        -0.293228         1.995349
 H         4.647042         2.326742         1.019335
 H         2.118286         2.981486        -0.345582
 H         3.517576         2.345155        -1.307849
 H         1.607276         0.529584        -2.135808
 H         4.020101        -0.182954        -1.392054
