19
Iteration:  2981charge 0 multiplicity 1
 C        -0.036288        -0.501169         0.182605
 C         1.373979         0.024049         0.037053
 C         2.198561         0.610928         1.280781
 C         3.267578         1.174523         0.391504
 O         4.540583         1.496640         1.004172
 C         2.539376         2.120691        -0.555730
 C         1.869579         0.891015        -1.158785
 C         3.093586         0.064870        -0.712100
 O         2.333419        -1.067940        -0.230126
 H        -0.101002        -0.772498         1.289888
 H        -0.800910         0.268689        -0.187112
 H        -0.118959        -1.364930        -0.539513
 H         1.667678         1.305896         1.979701
 H         2.505726        -0.268184         1.788384
 H         4.495031         1.075469         1.852855
 H         2.004444         2.927915        -0.081728
 H         3.157141         2.637591        -1.281688
 H         1.590988         0.689015        -2.196985
 H         3.897711        -0.216686        -1.407277
