19
Iteration:  1573
 C        -0.061751        -0.451658         0.186483
 C         1.357821         0.016803         0.011558
 C         2.082280         0.664494         1.230431
 C         3.323257         1.193438         0.394957
 O         4.533828         1.468200         1.032340
 C         2.548213         2.134059        -0.565216
 C         1.958164         0.818128        -1.203435
 C         3.190651         0.002179        -0.716035
 O         2.281928        -1.073759        -0.185162
 H        -0.359422        -0.567441         1.228137
 H        -0.641683         0.463480        -0.108499
 H        -0.148808        -1.284850        -0.448009
 H         1.539266         1.371634         1.736862
 H         2.328157        -0.217114         1.923285
 H         4.352240         1.075392         1.873355
 H         2.090406         2.910478         0.020469
 H         3.289346         2.567571        -1.221719
 H         1.585842         0.787221        -2.188067
 H         4.087661        -0.191341        -1.251721
