19
Iteration:   991charge 0 multiplicity 1
 C        -0.048970        -0.338249         0.195791
 C         1.381656         0.083203         0.039596
 C         2.102083         0.669881         1.221356
 C         3.308127         1.076822         0.386678
 O         4.490415         1.471054         1.124353
 C         2.565282         2.091054        -0.715185
 C         2.002133         0.851888        -1.178877
 C         3.155234        -0.066321        -0.664781
 O         2.282804        -1.128633        -0.206953
 H        -0.357504        -0.596622         1.208371
 H        -0.668227         0.576226        -0.076694
 H        -0.128158        -1.310224        -0.461722
 H         1.741279         1.448686         1.716931
 H         2.326197        -0.202088         1.880048
 H         4.077634         1.987413         1.940912
 H         2.069705         3.027613        -0.493297
 H         3.435876         2.528543        -1.147659
 H         1.523073         0.752705        -2.151044
 H         3.981000        -0.362279        -1.320973
