19
Iteration:  4675charge 0 multiplicity 1
 C         0.015660        -0.572637         0.275697
 C         1.366440         0.064615         0.097994
 C         2.051851         0.738841         1.204258
 C         3.261887         1.167451         0.373226
 O         4.534867         1.238068         0.985972
 C         2.609155         2.199721        -0.651868
 C         1.836485         0.911179        -1.161330
 C         3.117365         0.120257        -0.752525
 O         2.393784        -1.032583        -0.182406
 H        -0.785928         0.128732         0.480873
 H        -0.166308        -1.200338        -0.604185
 H         0.112059        -1.301183         1.252551
 H         1.529352         1.491632         1.776337
 H         2.463519        -0.001707         1.902294
 H         4.479621         1.609807         1.916320
 H         1.905023         2.987318        -0.313638
 H         3.254304         2.461321        -1.485226
 H         1.134538         0.889761        -1.953575
 H         4.070577        -0.153618        -1.271979
