19
Iteration:  1008
 C        -0.112099        -0.336377         0.103939
 C         1.403782        -0.025936         0.083144
 C         2.100033         0.667794         1.262085
 C         3.235884         1.224258         0.408026
 O         4.433903         1.397969         1.012695
 C         2.724716         2.111382        -0.640087
 C         1.938275         0.795143        -1.158844
 C         3.173218        -0.033729        -0.713918
 O         2.335445        -1.068879        -0.142136
 H        -0.251945        -0.687547         1.186440
 H        -0.718991         0.490888        -0.165455
 H        -0.399174        -1.070457        -0.557671
 H         1.443940         1.505420         1.923911
 H         2.505290        -0.102986         1.922321
 H         4.349878         1.717921         1.984023
 H         2.102823         2.982843        -0.249827
 H         3.349607         2.482742        -1.546505
 H         1.519859         0.652916        -2.200911
 H         4.181738        -0.318383        -1.170133
