19
Iteration:  3630
 C        -0.046842        -0.421354         0.117954
 C         1.435859        -0.054143         0.143115
 C         2.137141         0.744489         1.286237
 C         3.286347         1.166825         0.380819
 O         4.469847         1.499782         1.086837
 C         2.502517         2.133226        -0.594069
 C         1.919911         0.787215        -1.117907
 C         3.152370        -0.062107        -0.754217
 O         2.377274        -1.133314        -0.247677
 H        -0.346585        -0.822214         1.200609
 H        -0.634096         0.514498         0.250123
 H        -0.503368        -1.180243        -0.645111
 H         1.568865         1.652556         1.623761
 H         2.416850         0.201397         2.157063
 H         4.960484         2.000773         0.405075
 H         1.750434         2.841326        -0.165180
 H         3.135852         2.695510        -1.325499
 H         1.279075         0.731498        -1.971713
 H         4.132638        -0.283543        -1.305703
