19
Iteration:  1492charge 0 multiplicity 1
 C        -0.065042        -0.447387         0.126646
 C         1.347880         0.003451         0.080773
 C         2.066175         0.796616         1.257247
 C         3.310985         1.146949         0.440390
 O         4.501558         1.523431         1.010376
 C         2.650259         2.059359        -0.578445
 C         2.002578         0.823149        -1.132677
 C         3.127938        -0.054443        -0.724922
 O         2.291806        -1.078417        -0.213695
 H        -0.063677        -1.304064         0.744125
 H        -0.853858         0.261480         0.266956
 H        -0.384208        -0.886785        -0.874746
 H         1.473501         1.743621         1.737776
 H         2.337170         0.040192         2.012479
 H         4.799052         0.757053         1.536415
 H         1.914952         2.759222        -0.079976
 H         3.266092         2.802845        -1.131909
 H         1.426710         0.799024        -2.099409
 H         4.060580        -0.267509        -1.298341
