19
Iteration:  4387
 C        -0.072585        -0.503756         0.271337
 C         1.423560        -0.006747         0.091319
 C         2.105648         0.676559         1.285491
 C         3.223022         1.180362         0.386925
 O         4.524989         1.285876         1.016030
 C         2.514569         2.135880        -0.633159
 C         1.946204         0.915224        -1.180261
 C         3.147508         0.072850        -0.762226
 O         2.405137        -1.014153        -0.204774
 H        -0.362612        -0.013209         1.244511
 H        -0.716463        -0.158684        -0.593374
 H         0.075329        -1.531883         0.171852
 H         1.500452         1.482326         1.813081
 H         2.370846        -0.058747         2.037365
 H         4.454072         2.011942         1.567576
 H         1.812538         2.985868        -0.528343
 H         3.148749         2.538172        -1.474836
 H         1.300722         0.684987        -2.201845
 H         4.043128        -0.185132        -1.339771
