19
Iteration:   357charge 0 multiplicity 1
 C        -0.115316        -0.384329         0.020909
 C         1.325051         0.040356         0.041511
 C         2.086732         0.730022         1.332430
 C         3.283545         1.141739         0.483904
 O         4.486521         1.539324         1.020328
 C         2.722479         2.095158        -0.641473
 C         1.941923         0.868723        -1.126796
 C         3.122856        -0.076176        -0.655175
 O         2.362098        -1.161036        -0.161756
 H        -0.450299        -1.137154         0.692527
 H        -0.701582         0.469693         0.289350
 H        -0.350243        -0.614045        -1.074816
 H         1.284261         1.490515         1.822232
 H         2.248979        -0.152862         2.011138
 H         4.769828         0.738189         1.419826
 H         2.188246         2.996102        -0.301018
 H         3.517769         2.220203        -1.396353
 H         1.443640         0.950482        -2.092212
 H         4.024494        -0.243128        -1.376476
