19
Iteration:   350charge 0 multiplicity 1
 C        -0.099606        -0.388775        -0.033386
 C         1.285824         0.033564         0.126796
 C         2.055384         0.718436         1.364739
 C         3.237626         1.140599         0.472448
 O         4.524086         1.509644         1.013845
 C         2.682801         2.053383        -0.666218
 C         1.945774         0.852177        -1.172528
 C         3.178585        -0.065148        -0.613380
 O         2.353882        -1.075682        -0.181134
 H        -0.320247        -1.251658         0.613723
 H        -0.750493         0.469270         0.306657
 H        -0.459248        -0.504540        -1.090308
 H         1.631163         1.494267         1.956256
 H         2.289741        -0.100188         2.009386
 H         4.985881         0.636491         1.272078
 H         2.132485         2.967087        -0.400266
 H         3.448574         2.420678        -1.364955
 H         1.438084         0.856637        -2.116246
 H         4.077089        -0.304642        -1.057590
