19
Iteration:  4796
 C        -0.056803        -0.413176         0.303221
 C         1.346165         0.015214         0.131167
 C         2.092294         0.675072         1.222648
 C         3.317051         1.154049         0.326634
 O         4.447311         1.360098         1.062281
 C         2.542816         2.167647        -0.536776
 C         1.898739         0.889074        -1.215483
 C         3.182336        -0.018216        -0.742551
 O         2.438057        -1.106821        -0.261729
 H        -0.572148         0.169106         1.029595
 H        -0.479042        -0.598185        -0.649129
 H        -0.009663        -1.254606         1.096249
 H         1.426479         1.403200         1.615339
 H         2.405157         0.258865         2.222281
 H         4.823337         2.103735         0.661929
 H         1.796484         2.908637        -0.233375
 H         3.112371         2.456482        -1.453093
 H         1.434981         0.829014        -2.257023
 H         3.986113        -0.219393        -1.517372
