19
Iteration:  2679charge 0 multiplicity 1
 C        -0.048601        -0.495725         0.212835
 C         1.390473        -0.014023         0.061965
 C         2.151541         0.665734         1.258597
 C         3.335381         1.128029         0.381574
 O         4.515852         1.525435         1.032622
 C         2.577825         2.180450        -0.592830
 C         1.895368         0.883770        -1.105543
 C         3.154209        -0.034036        -0.726301
 O         2.292987        -1.095368        -0.276326
 H         0.014061        -1.535831         0.676906
 H        -0.739498         0.130733         0.744347
 H        -0.588584        -0.509017        -0.777083
 H         1.540155         1.574394         1.577760
 H         2.351298        -0.183723         1.927888
 H         4.547030         1.436397         1.941506
 H         1.914444         2.992714        -0.170356
 H         3.098874         2.749795        -1.403536
 H         1.353663         0.794113        -2.082843
 H         4.055438        -0.346443        -1.233827
