19
Iteration:  2016
 C        -0.015012        -0.579638         0.082195
 C         1.313625         0.077491         0.103440
 C         2.107690         0.726149         1.303722
 C         3.288186         1.167700         0.406441
 O         4.468315         1.458189         0.946661
 C         2.657710         2.204147        -0.597353
 C         1.957902         0.867528        -1.206868
 C         3.138952        -0.010144        -0.689642
 O         2.310146        -1.104867        -0.115154
 H        -0.068183        -1.384086         0.765069
 H        -0.674211         0.144333         0.666395
 H        -0.280633        -0.767596        -0.967176
 H         1.715675         1.541806         1.841982
 H         2.488779        -0.264216         1.749186
 H         4.522986         1.112546         1.953485
 H         1.846517         2.845034        -0.193540
 H         3.262607         2.703261        -1.355029
 H         1.352292         0.860225        -2.079121
 H         3.948369        -0.126719        -1.321412
