19
Iteration:  4371charge 0 multiplicity 1
 C         0.021629        -0.525794         0.296692
 C         1.346033         0.045076         0.091985
 C         2.059644         0.784218         1.199220
 C         3.280769         1.196262         0.369787
 O         4.464500         1.260825         0.983085
 C         2.562732         2.234183        -0.627729
 C         1.881564         0.836020        -1.150991
 C         3.182917         0.065352        -0.716050
 O         2.397043        -1.091151        -0.233996
 H        -0.475199        -0.377646         1.228476
 H        -0.711295        -0.229009        -0.428444
 H        -0.081748        -1.673837         0.152956
 H         1.501617         1.575095         1.657392
 H         2.379488         0.068818         1.988991
 H         4.576682         1.923945         1.628205
 H         1.964875         2.825587         0.045914
 H         3.297746         2.697456        -1.258782
 H         1.562269         0.690868        -2.076602
 H         4.136610        -0.091297        -1.296640
