19
Iteration:  4363charge 0 multiplicity 1
 C        -0.069639        -0.585289         0.285249
 C         1.403632         0.014269         0.046030
 C         2.056120         0.820173         1.228253
 C         3.260902         1.181482         0.355654
 O         4.511685         1.285662         0.984923
 C         2.605148         2.227167        -0.557235
 C         1.854032         0.872339        -1.158125
 C         3.230419         0.066813        -0.773173
 O         2.359190        -1.108220        -0.208899
 H        -0.310925        -0.331961         1.355451
 H        -0.863203        -0.237038        -0.398928
 H         0.145106        -1.618174         0.081461
 H         1.477039         1.632712         1.558728
 H         2.204603         0.161529         2.102307
 H         4.526977         1.941971         1.711071
 H         2.069173         3.039562        -0.060327
 H         3.168541         2.747149        -1.362358
 H         1.373676         0.540244        -2.137185
 H         4.148465        -0.132171        -1.204208
