19
Iteration:  3071
 C        -0.007767        -0.559233         0.245422
 C         1.385092         0.015800         0.054281
 C         2.063971         0.716262         1.288551
 C         3.229388         1.178454         0.396505
 O         4.501148         1.347803         0.964569
 C         2.585581         2.181174        -0.664046
 C         1.859414         0.891098        -1.115800
 C         3.199401         0.046176        -0.703952
 O         2.405097        -1.053635        -0.246448
 H        -0.145453        -1.629519         0.673924
 H        -0.630276        -0.107751         1.024024
 H        -0.590952        -0.569916        -0.824562
 H         1.497313         1.384386         1.854903
 H         2.207142        -0.042923         2.030975
 H         4.448619         1.732115         1.777767
 H         2.113137         3.095891        -0.242364
 H         3.330088         2.622824        -1.330724
 H         1.281148         0.964757        -2.092307
 H         4.171494        -0.042904        -1.191963
