19
Iteration:  2438
 C        -0.010781        -0.502802         0.138040
 C         1.365425        -0.002006         0.068924
 C         2.044116         0.789170         1.233703
 C         3.330123         1.114374         0.370789
 O         4.549342         1.536080         0.993509
 C         2.555858         2.109757        -0.481295
 C         1.919772         0.795798        -1.064145
 C         3.111583         0.011883        -0.722156
 O         2.360241        -1.093141        -0.239982
 H        -0.129457        -1.585918         0.559087
 H        -0.576493         0.193507         0.750441
 H        -0.383335        -0.568566        -0.943191
 H         1.473464         1.780292         1.363857
 H         2.138227         0.207549         2.206382
 H         4.847086         0.757552         1.411267
 H         1.930646         2.942074        -0.127801
 H         3.092801         2.653458        -1.264182
 H         1.263715         0.863493        -1.966884
 H         3.960517        -0.368152        -1.382531
