19
Iteration:  1539charge 0 multiplicity 1
 C        -0.038855        -0.411374         0.273512
 C         1.351729         0.020174         0.104056
 C         2.040041         0.713765         1.247554
 C         3.269751         1.154046         0.408992
 O         4.438716         1.522119         1.111088
 C         2.676247         2.096661        -0.590752
 C         1.918206         0.848529        -1.158847
 C         3.181094        -0.002557        -0.802779
 O         2.381647        -1.157526        -0.328672
 H        -0.372088        -0.655477         1.261766
 H        -0.700666         0.331374        -0.288210
 H        -0.509186        -1.259932        -0.282739
 H         1.445386         1.573541         1.513323
 H         2.222745         0.018751         2.152579
 H         4.668247         0.787937         1.596927
 H         2.361167         3.129545        -0.256889
 H         3.474722         2.336677        -1.318341
 H         1.396898         0.837420        -2.094194
 H         4.067640        -0.209127        -1.396049
