19
Iteration:   519charge 0 multiplicity 1
 C        -0.109105        -0.335311         0.103209
 C         1.417002        -0.064517        -0.033298
 C         2.043445         0.761857         1.182891
 C         3.260169         1.136374         0.503797
 O         4.525038         1.421662         1.075894
 C         2.644749         2.106327        -0.579262
 C         1.939258         0.816182        -1.155623
 C         3.181303        -0.040196        -0.650575
 O         2.302364        -1.130766        -0.204119
 H        -0.145636        -1.297041         0.617788
 H        -0.519904         0.390059         0.792457
 H        -0.747571        -0.245684        -0.824827
 H         1.534628         1.601366         1.331908
 H         2.086442         0.161293         2.056947
 H         4.840008         2.351908         1.404109
 H         2.055696         2.954336        -0.245097
 H         3.510996         2.341102        -1.190938
 H         1.386706         0.712809        -2.172832
 H         4.196708        -0.450501        -0.981905
