19
Iteration:  4762charge 0 multiplicity 1
 C        -0.057599        -0.371951         0.229016
 C         1.348851         0.028028         0.126718
 C         2.164019         0.531553         1.292549
 C         3.308722         1.159199         0.431042
 O         4.532352         1.562762         1.000927
 C         2.570899         2.112464        -0.575857
 C         1.895335         0.853044        -1.126873
 C         3.137574        -0.029635        -0.722044
 O         2.305860        -1.162612        -0.301593
 H        -0.638571         0.502634         0.247004
 H        -0.496903        -0.867676        -0.612321
 H        -0.208618        -1.195041         0.994165
 H         1.673505         1.348850         1.766653
 H         2.688964        -0.186597         1.901990
 H         4.458443         2.466277         1.067254
 H         2.179027         3.082736        -0.200928
 H         3.232565         2.378062        -1.414033
 H         1.357562         0.721561        -2.061303
 H         3.887990        -0.297466        -1.540794
