19
Iteration:  3389charge 0 multiplicity 1
 C        -0.014918        -0.544550         0.273550
 C         1.396392        -0.058405         0.060809
 C         2.054627         0.746097         1.228238
 C         3.284212         1.154157         0.425495
 O         4.542233         1.395054         1.013014
 C         2.523609         2.125649        -0.567191
 C         1.880864         0.950189        -1.130739
 C         3.157617         0.023988        -0.776271
 O         2.417030        -1.101358        -0.305155
 H        -0.205190        -0.885557         1.283929
 H        -0.688592         0.188207        -0.070658
 H        -0.438401        -1.406679        -0.266421
 H         1.602433         1.859941         1.396786
 H         2.030023         0.243985         2.178862
 H         4.505920         2.027094         1.810986
 H         1.952596         2.902361        -0.015158
 H         3.248400         2.638944        -1.210044
 H         1.250077         0.823805        -1.919157
 H         3.972790        -0.112451        -1.500647
