19
Iteration:  3830charge 0 multiplicity 1
 C        -0.056346        -0.417407         0.286125
 C         1.405521        -0.042741         0.098840
 C         2.109530         0.656385         1.227885
 C         3.288810         1.134296         0.397668
 O         4.518548         1.522709         0.985449
 C         2.536393         2.150041        -0.614415
 C         1.915813         0.818301        -1.139521
 C         3.192934        -0.000573        -0.750624
 O         2.396177        -1.109660        -0.284790
 H        -0.419022        -0.812068         1.281541
 H        -0.727332         0.294225        -0.153168
 H        -0.435169        -1.260854        -0.280709
 H         1.394246         1.543476         1.683585
 H         2.302852         0.003257         2.031014
 H         4.310289         1.644244         1.973138
 H         1.828572         2.852761        -0.138958
 H         3.259216         2.763627        -1.204841
 H         1.159691         0.877494        -1.949028
 H         3.949942        -0.343460        -1.345284
