19
Iteration:   184charge 0 multiplicity 1
 C        -0.137516        -0.358585        -0.058179
 C         1.368246         0.066509         0.118269
 C         2.137989         0.742465         1.284090
 C         3.283880         1.107775         0.417034
 O         4.499599         1.336790         0.958112
 C         2.643135         2.138056        -0.574981
 C         1.980141         0.856264        -1.152065
 C         3.147732        -0.115020        -0.610146
 O         2.308939        -1.077734        -0.081659
 H        -0.554143        -1.151041         0.597566
 H        -0.878837         0.469400        -0.176203
 H        -0.228768        -0.856130        -1.163095
 H         1.699187         1.638739         1.732527
 H         2.486930         0.034218         2.024803
 H         4.409598         2.169495         1.562568
 H         2.029390         2.982248        -0.169674
 H         3.384594         2.582183        -1.271233
 H         1.480368         0.881473        -2.077469
 H         4.111701        -0.401760        -0.976601
