19
Iteration:   583
 C        -0.085238        -0.416187         0.147978
 C         1.319747         0.020064         0.055411
 C         1.991736         0.755104         1.184522
 C         3.291039         1.161659         0.488591
 O         4.525380         1.358635         1.050468
 C         2.758310         2.123329        -0.678839
 C         1.972095         0.850724        -1.100553
 C         3.143950        -0.017319        -0.672944
 O         2.317968        -1.104751        -0.233953
 H        -0.170405        -0.940658         1.163964
 H        -0.861959         0.338056         0.012698
 H        -0.236490        -1.169965        -0.605244
 H         1.271299         1.691950         1.574049
 H         2.074477         0.059051         2.075343
 H         4.378892         2.031566         1.825673
 H         2.222732         3.010878        -0.343833
 H         3.552562         2.527174        -1.309406
 H         1.438654         0.628054        -2.103935
 H         4.098609        -0.220772        -1.256378
