19
Iteration:  3043
 C        -0.040481        -0.491394         0.269713
 C         1.392477         0.027537         0.067022
 C         2.126422         0.648102         1.241890
 C         3.296981         1.183605         0.390079
 O         4.523742         1.422663         1.020131
 C         2.464480         2.159500        -0.602354
 C         1.953580         0.867462        -1.177760
 C         3.192839        -0.029542        -0.788000
 O         2.341083        -1.029214        -0.223991
 H        -0.139558        -1.453001         0.680562
 H        -0.713146         0.072825         0.923429
 H        -0.419895        -0.715680        -0.650926
 H         1.476461         1.453269         1.748029
 H         2.364380        -0.216250         2.017461
 H         4.368038         1.674929         1.913172
 H         1.736146         2.830443        -0.097711
 H         3.187858         2.683245        -1.257363
 H         1.591647         0.979837        -2.167671
 H         4.039175        -0.233795        -1.471708
