19
Iteration:  4599charge 0 multiplicity 1
 C        -0.098860        -0.338902         0.233333
 C         1.405797        -0.005058         0.130217
 C         2.179824         0.588513         1.300879
 C         3.278979         1.201159         0.349477
 O         4.518851         1.478098         0.953662
 C         2.479733         2.077649        -0.617897
 C         1.865701         0.827350        -1.178602
 C         3.209336         0.061270        -0.724795
 O         2.400937        -1.104473        -0.230045
 H        -0.595125         0.365270         0.800222
 H        -0.637879        -0.284448        -0.687839
 H        -0.256959        -1.406455         0.576877
 H         1.539615         1.238434         1.942394
 H         2.488962        -0.306873         1.866692
 H         4.369713         1.361196         1.939865
 H         1.758373         2.672415        -0.081371
 H         3.162734         2.639898        -1.253461
 H         1.469126         0.804267        -2.110800
 H         4.104010        -0.249829        -1.300669
