19
Iteration:   446
 C        -0.147409        -0.448158         0.129759
 C         1.361526         0.069909         0.067914
 C         2.023661         0.843821         1.264640
 C         3.290483         1.111630         0.420718
 O         4.510891         1.338239         1.049812
 C         2.715776         2.139097        -0.571819
 C         1.958417         0.777999        -1.131319
 C         3.132569        -0.013690        -0.761490
 O         2.406967        -1.087695        -0.220779
 H        -0.365497        -0.882136         1.049559
 H        -0.899158         0.267629        -0.167555
 H        -0.305476        -1.181389        -0.757990
 H         1.273076         1.813471         1.408081
 H         2.149148         0.270811         2.206483
 H         4.330983         1.637061         1.945589
 H         2.122530         3.002710        -0.164310
 H         3.552603         2.434889        -1.243896
 H         1.416723         0.746300        -1.990503
 H         3.985348        -0.139542        -1.382576
