19
Iteration:   707charge 0 multiplicity 1
 C        -0.099083        -0.392063         0.259871
 C         1.327961         0.054542        -0.032577
 C         2.012683         0.728308         1.279126
 C         3.232875         1.216606         0.449370
 O         4.426026         1.306985         1.096084
 C         2.709971         2.133596        -0.725682
 C         2.065129         0.822953        -1.221308
 C         3.187950        -0.045685        -0.620517
 O         2.327710        -1.101516        -0.216887
 H        -0.025205        -1.301970         0.756717
 H        -0.727955         0.328004         0.887620
 H        -0.466924        -0.636406        -0.874750
 H         1.735786         1.614603         1.948392
 H         2.448972        -0.146529         1.857428
 H         4.385711         2.307865         1.436856
 H         2.054024         3.004192        -0.576255
 H         3.484301         2.516917        -1.395431
 H         1.733558         0.819480        -2.266941
 H         4.022236        -0.269478        -1.308130
