19
Iteration:    29charge 0 multiplicity 1
 C        -0.152970        -0.323151        -0.071113
 C         1.358650         0.018935         0.080816
 C         2.076996         0.848018         1.255552
 C         3.346555         1.124097         0.461936
 O         4.597024         1.380406         0.978193
 C         2.635631         2.071307        -0.600397
 C         2.019503         0.784071        -1.138010
 C         3.115216        -0.081816        -0.596354
 O         2.247147        -1.129651        -0.084376
 H        -0.721289        -0.750132         0.789585
 H        -0.792017         0.571833        -0.207195
 H        -0.094337        -0.854025        -1.094321
 H         1.488432         1.669962         1.702182
 H         2.287442         0.168052         2.113936
 H         4.558281         1.991475         1.726095
 H         1.873111         2.793787        -0.197677
 H         3.318423         2.574419        -1.344728
 H         1.681201         0.730440        -2.188040
 H         4.061436        -0.462840        -1.115806
