19
Iteration:  1347charge 0 multiplicity 1
 C        -0.055884        -0.412774         0.077708
 C         1.358125         0.025237         0.110261
 C         2.084706         0.719996         1.278007
 C         3.320371         1.134635         0.378670
 O         4.550125         1.472428         1.034294
 C         2.556348         2.111845        -0.562075
 C         1.979289         0.840431        -1.198876
 C         3.116998        -0.054401        -0.687292
 O         2.319483        -1.029061        -0.177719
 H        -0.479231        -0.820645         1.017202
 H        -0.608078         0.379047        -0.298038
 H        -0.123816        -1.181118        -0.591787
 H         1.480541         1.640007         1.635257
 H         2.290403         0.018274         2.077486
 H         4.805367         0.543530         1.453074
 H         1.844951         2.655001        -0.022340
 H         3.119907         2.729124        -1.217909
 H         1.433795         0.815516        -2.137380
 H         3.965291        -0.491697        -1.187729
