19
Iteration:  2565
 C        -0.092449        -0.462721         0.125978
 C         1.372335        -0.041836         0.122952
 C         2.111414         0.570091         1.357731
 C         3.261661         1.194721         0.433959
 O         4.536304         1.566696         0.919310
 C         2.590955         2.123211        -0.535115
 C         1.912556         0.907072        -1.150253
 C         3.119546         0.025167        -0.717495
 O         2.363788        -1.099609        -0.253217
 H        -0.280241        -0.770248         1.166759
 H        -0.738273         0.363549        -0.315021
 H        -0.380588        -1.264247        -0.564139
 H         1.613984         1.332940         1.802427
 H         2.406493        -0.198411         2.116404
 H         4.786082         0.791716         1.360847
 H         1.915411         2.970056        -0.188857
 H         3.380090         2.441076        -1.280142
 H         1.397761         0.936799        -2.106478
 H         4.144691        -0.105672        -1.116364
