19
Iteration:  2288
 C        -0.058843        -0.489799         0.095323
 C         1.451886        -0.030619         0.097711
 C         1.982010         0.785010         1.243233
 C         3.322844         1.106596         0.399129
 O         4.567827         1.523114         0.954732
 C         2.596644         2.118090        -0.545704
 C         1.836617         0.866526        -1.107903
 C         3.185150        -0.031873        -0.689509
 O         2.360094        -1.102911        -0.191171
 H        -0.201868        -1.382002         0.671314
 H        -0.765778         0.257595         0.596450
 H        -0.214106        -0.808165        -0.957008
 H         1.500246         1.815620         1.546629
 H         2.098586         0.135808         2.251638
 H         4.798666         0.969291         1.616223
 H         2.000965         2.735477         0.180320
 H         3.123313         2.610875        -1.385507
 H         1.090374         1.072815        -1.926491
 H         3.893164        -0.263556        -1.531748
