19
Iteration:  2418
 C        -0.091587        -0.493209         0.126384
 C         1.393635        -0.023222         0.134823
 C         2.069346         0.653468         1.302859
 C         3.251111         1.154902         0.406868
 O         4.525972         1.509315         0.939821
 C         2.589788         2.161912        -0.609567
 C         1.889526         0.913214        -1.092109
 C         3.182424         0.047050        -0.753637
 O         2.394347        -1.128017        -0.175342
 H        -0.300186        -1.399139         0.762233
 H        -0.735645         0.405245         0.378070
 H        -0.465767        -0.689903        -0.917154
 H         1.481377         1.469747         1.827344
 H         2.357993        -0.067731         1.975893
 H         4.659346         0.853853         1.727538
 H         2.045371         3.026545        -0.242591
 H         3.298955         2.677227        -1.245125
 H         1.458516         0.727774        -2.111200
 H         4.026389        -0.316965        -1.385885
