19
Iteration:  4911charge 0 multiplicity 1
 C        -0.032226        -0.334999         0.277258
 C         1.459990        -0.085874         0.075103
 C         2.196934         0.550108         1.239938
 C         3.255124         1.145044         0.361326
 O         4.485882         1.435463         0.955177
 C         2.460905         2.119358        -0.550107
 C         1.880508         0.879416        -1.111075
 C         3.184838         0.099756        -0.720889
 O         2.379993        -1.135219        -0.274463
 H        -0.539683         0.658355         0.254669
 H        -0.495561        -0.949079        -0.514295
 H        -0.332622        -0.623551         1.251471
 H         1.564074         1.252818         1.775485
 H         2.529656        -0.159405         1.913344
 H         4.557011         2.196892         1.566511
 H         1.719205         2.756895        -0.071058
 H         2.977222         2.528979        -1.387002
 H         1.223604         0.913421        -1.969565
 H         4.035900        -0.109859        -1.387326
