19
Iteration:  2450
 C        -0.050768        -0.543906         0.173921
 C         1.361331         0.037416         0.111175
 C         2.056580         0.790389         1.251499
 C         3.287571         1.127574         0.453842
 O         4.523972         1.523297         1.006758
 C         2.564778         2.130333        -0.584787
 C         1.874580         0.933593        -1.151846
 C         3.185011        -0.045919        -0.753152
 O         2.368843        -1.128615        -0.239937
 H        -0.011579        -1.605562         0.578602
 H        -0.776519         0.008849         0.868730
 H        -0.551049        -0.535581        -0.855988
 H         1.590736         1.767083         1.687003
 H         2.155524         0.114018         2.082831
 H         5.046784         0.772516         1.337799
 H         1.922599         2.821143        -0.033616
 H         3.396689         2.422317        -1.210531
 H         1.424952         0.766373        -2.169642
 H         4.126243        -0.240027        -1.374871
