19
Iteration:  2414
 C        -0.102974        -0.490295         0.137039
 C         1.359500        -0.002679         0.099174
 C         2.104280         0.660805         1.317611
 C         3.239843         1.143968         0.414402
 O         4.516892         1.507031         0.943327
 C         2.587149         2.177676        -0.606534
 C         1.905669         0.896384        -1.115936
 C         3.156265         0.054868        -0.732006
 O         2.416435        -1.128682        -0.182668
 H        -0.444481        -1.347378         0.815904
 H        -0.651198         0.354727         0.437340
 H        -0.305018        -0.802100        -0.924753
 H         1.591045         1.463046         1.844131
 H         2.414713        -0.309614         1.961330
 H         4.626213         0.925628         1.698431
 H         1.974895         3.070158        -0.363221
 H         3.427681         2.548782        -1.246200
 H         1.363875         0.814893        -2.063798
 H         4.033369        -0.301765        -1.307128
