19
Iteration:  4686
 C         0.000729        -0.531168         0.271488
 C         1.388110        -0.019674         0.124586
 C         2.128656         0.760992         1.258472
 C         3.246074         1.177411         0.403752
 O         4.503520         1.189750         0.918604
 C         2.540986         2.238602        -0.601351
 C         1.833885         0.874498        -1.174503
 C         3.092570         0.127097        -0.751835
 O         2.447374        -1.015999        -0.193241
 H        -0.762655         0.257396         0.194964
 H        -0.188529        -1.209472        -0.567809
 H        -0.212833        -1.146164         1.300482
 H         1.562842         1.629183         1.571604
 H         2.267743         0.013373         2.050059
 H         4.389424         1.655342         1.868182
 H         1.928288         3.149128        -0.448547
 H         3.378780         2.597402        -1.208725
 H         1.612542         0.610077        -2.174866
 H         3.999751        -0.120923        -1.373932
