19
Iteration:   194
 C        -0.142476        -0.313985        -0.067559
 C         1.290032         0.045949         0.039936
 C         2.116247         0.717996         1.356673
 C         3.224184         1.131737         0.430016
 O         4.521158         1.346427         0.989228
 C         2.704098         2.108864        -0.580993
 C         1.941112         0.777699        -1.156728
 C         3.165140         0.024452        -0.637701
 O         2.334294        -1.097316        -0.080029
 H        -0.432642        -0.890420         0.862046
 H        -0.809019         0.572149        -0.186711
 H        -0.037727        -0.995101        -1.099869
 H         1.654971         1.498265         2.028218
 H         2.459988        -0.156488         1.966604
 H         4.766745         2.247378         1.320125
 H         2.080300         2.939148        -0.171792
 H         3.468992         2.430127        -1.324278
 H         1.515987         0.485720        -2.077312
 H         4.020450        -0.282433        -1.272476
