19
Iteration:  2245
 C        -0.081505        -0.501537         0.232036
 C         1.279528         0.067399         0.100216
 C         2.096140         0.633973         1.326071
 C         3.291312         1.164271         0.381480
 O         4.446454         1.579078         1.066705
 C         2.620487         2.100564        -0.693916
 C         1.983635         0.851193        -1.196701
 C         3.255176         0.030360        -0.769475
 O         2.296634        -1.084021        -0.255686
 H        -0.225527        -1.460733         0.677271
 H        -0.546727         0.151145         1.060804
 H        -0.524677        -0.510800        -0.757879
 H         1.619805         1.330892         2.059878
 H         2.555907        -0.356994         1.786956
 H         4.751995         0.820003         1.598832
 H         1.930810         2.939531        -0.359577
 H         3.483819         2.375590        -1.338595
 H         1.399723         0.709141        -2.132755
 H         4.281551        -0.307851        -0.945073
