19
Iteration:  2231charge 0 multiplicity 1
 C        -0.060966        -0.428759         0.280754
 C         1.388422        -0.009380         0.008715
 C         2.135834         0.625011         1.203697
 C         3.264130         1.188919         0.429561
 O         4.436708         1.616137         1.112219
 C         2.631033         2.129856        -0.630055
 C         1.979617         0.839546        -1.166111
 C         3.128676        -0.078384        -0.723162
 O         2.314393        -1.093902        -0.283021
 H         0.114417        -1.410235         0.789498
 H        -0.574921         0.173278         0.933003
 H        -0.708671        -0.613517        -0.607972
 H         1.506763         1.521225         1.700939
 H         2.382881        -0.132012         1.902430
 H         4.775627         0.806596         1.652187
 H         2.053682         2.992501        -0.320995
 H         3.328426         2.482160        -1.374019
 H         1.513916         0.749042        -2.148746
 H         3.945544        -0.364201        -1.447272
