19
Iteration:  4634
 C        -0.072760        -0.539568         0.298175
 C         1.375726        -0.005137         0.122438
 C         2.063443         0.691416         1.249775
 C         3.273280         1.200378         0.404651
 O         4.553691         1.515211         0.956192
 C         2.673335         2.079333        -0.608496
 C         1.926633         0.921623        -1.136538
 C         3.135938        -0.046924        -0.761695
 O         2.291656        -1.116406        -0.329578
 H        -0.636163        -0.076335         1.130745
 H        -0.466776        -0.556123        -0.725519
 H        -0.053424        -1.485006         0.767207
 H         1.472338         1.530354         1.658112
 H         2.386078        -0.056056         2.117851
 H         4.228647         1.873553         1.865255
 H         2.248831         2.874407         0.010991
 H         3.448028         2.669355        -1.182914
 H         1.219424         1.143394        -1.997412
 H         4.080836        -0.162312        -1.314672
