19
Iteration:  2092
 C        -0.034839        -0.445916         0.263889
 C         1.359743         0.042353         0.026139
 C         2.143995         0.612354         1.256398
 C         3.261788         1.120423         0.399822
 O         4.394133         1.554498         1.098421
 C         2.628877         2.134980        -0.675927
 C         1.939915         0.842893        -1.216971
 C         3.190602        -0.028837        -0.719478
 O         2.334771        -1.026814        -0.230169
 H         0.089533        -1.284850         1.009509
 H        -0.827890         0.398896         0.689157
 H        -0.443836        -0.691822        -0.785811
 H         1.627095         1.377842         1.823815
 H         2.288339        -0.356900         2.060639
 H         4.685277         0.786504         1.461041
 H         1.920832         2.913221        -0.247778
 H         3.485444         2.599952        -1.203607
 H         1.592937         0.467443        -2.164942
 H         3.994204        -0.228294        -1.354391
