19
Iteration:  1499charge 0 multiplicity 1
 C        -0.107755        -0.481676         0.131296
 C         1.329609         0.056716         0.093580
 C         2.060676         0.727460         1.274752
 C         3.293928         1.168557         0.391510
 O         4.503856         1.540080         1.047869
 C         2.661572         2.095462        -0.584383
 C         1.995570         0.831743        -1.197902
 C         3.179102        -0.031853        -0.714697
 O         2.276219        -1.092098        -0.207333
 H        -0.113286        -1.235353         1.025229
 H        -0.817127         0.305326         0.346556
 H        -0.165005        -0.938125        -0.788729
 H         1.717540         1.591123         1.840555
 H         2.358195        -0.072623         1.931767
 H         4.739934         0.597599         1.481649
 H         1.939613         2.797601        -0.258062
 H         3.366225         2.639141        -1.231217
 H         1.420954         0.832759        -2.096352
 H         4.074710        -0.320820        -1.242187
