19
Iteration:  2824
 C         0.052407        -0.461620         0.213959
 C         1.362691         0.015616         0.068374
 C         2.151098         0.681049         1.263342
 C         3.329613         1.159731         0.347830
 O         4.518731         1.474794         1.038297
 C         2.513717         2.169045        -0.515183
 C         1.873527         0.834896        -1.179399
 C         3.132664         0.000847        -0.751443
 O         2.314783        -1.100480        -0.258172
 H         0.232675        -1.281115         0.922732
 H        -0.785414         0.305423         0.514594
 H        -0.416331        -0.884682        -0.690269
 H         1.450653         1.580588         1.512952
 H         2.288528        -0.071018         1.957167
 H         4.352771         1.302360         1.969302
 H         1.841756         2.923677         0.010870
 H         3.287720         2.629517        -1.214466
 H         1.465482         0.791855        -2.194563
 H         3.919722        -0.325706        -1.455584
