19
Iteration:  2894charge 0 multiplicity 1
 C        -0.037786        -0.530634         0.191818
 C         1.380429        -0.006172         0.111334
 C         2.140934         0.735384         1.259752
 C         3.304662         1.127346         0.374536
 O         4.494216         1.573505         1.017334
 C         2.556224         2.125376        -0.498865
 C         1.982159         0.918549        -1.169635
 C         3.118831        -0.024914        -0.836710
 O         2.293914        -1.102848        -0.222214
 H         0.031907        -1.511276         0.675683
 H        -0.719706         0.067747         0.642394
 H        -0.576606        -0.624164        -0.711976
 H         1.661464         1.715178         1.643716
 H         2.426384        -0.135872         1.970233
 H         4.590862         0.850818         1.578115
 H         1.862153         2.789651         0.000700
 H         3.287923         2.616080        -1.113208
 H         1.396755         0.668241        -2.047473
 H         4.042496        -0.343825        -1.361750
