19
Iteration:   160
 C        -0.056221        -0.376685         0.061567
 C         1.384338         0.053747         0.034222
 C         1.921269         0.813960         1.244410
 C         3.353331         1.108575         0.468575
 O         4.623733         1.393642         1.041988
 C         2.690482         2.120906        -0.600151
 C         1.953201         0.764567        -1.154536
 C         3.120907        -0.058185        -0.699834
 O         2.246395        -1.083788        -0.131974
 H        -0.148542        -1.378637         0.659961
 H        -0.846770         0.354907         0.289045
 H        -0.414708        -0.703998        -1.043686
 H         1.440162         1.814887         1.478786
 H         2.124095         0.171785         2.170475
 H         4.553750         1.540519         1.951273
 H         2.075675         2.945342        -0.158127
 H         3.316810         2.618770        -1.385009
 H         1.551509         0.602098        -2.148241
 H         3.981235        -0.297123        -1.432626
