19
Iteration:  4217charge 0 multiplicity 1
 C        -0.070006        -0.618146         0.213415
 C         1.343029        -0.004521         0.140071
 C         2.061406         0.762684         1.227131
 C         3.326793         1.107065         0.353786
 O         4.524257         1.634313         1.085531
 C         2.727983         2.083163        -0.620173
 C         1.882567         0.904574        -1.187633
 C         3.091362        -0.025461        -0.752554
 O         2.273217        -1.057867        -0.171172
 H         0.040474        -1.677019         0.500457
 H        -0.581108        -0.143544         1.074688
 H        -0.500990        -0.572897        -0.941933
 H         1.529688         1.724374         1.316958
 H         2.422348         0.200804         2.078513
 H         5.091107         0.872618         1.106836
 H         2.211428         2.979574        -0.150094
 H         3.302330         2.549785        -1.447611
 H         1.377740         0.677598        -2.065511
 H         3.943213        -0.582374        -1.395247
