19
Iteration:  3750charge 0 multiplicity 1
 C        -0.005540        -0.577389         0.169518
 C         1.369025         0.001574         0.138222
 C         2.064240         0.781222         1.286188
 C         3.275456         1.177843         0.357495
 O         4.482452         1.427498         1.042679
 C         2.558963         2.141238        -0.652417
 C         1.910611         0.871348        -1.103856
 C         3.131100         0.008047        -0.702740
 O         2.379826        -1.076509        -0.182494
 H        -0.270994        -1.154050         0.994384
 H        -0.646926         0.261240         0.342786
 H        -0.101010        -0.987443        -0.875565
 H         1.395340         1.617156         1.796458
 H         2.295694         0.025671         2.095045
 H         5.209155         1.527983         0.340508
 H         1.920817         3.000036        -0.398877
 H         3.210738         2.366857        -1.516340
 H         1.376508         0.914508        -2.056928
 H         4.124627        -0.282258        -1.194962
