19
Iteration:   558
 C        -0.072380        -0.411687         0.200007
 C         1.291303         0.043030         0.042351
 C         2.119857         0.622403         1.258529
 C         3.275198         1.141200         0.418383
 O         4.410355         1.379892         1.192238
 C         2.718510         2.122017        -0.744942
 C         2.018409         0.862741        -1.260795
 C         3.189430        -0.051845        -0.713451
 O         2.274757        -1.026595        -0.198837
 H        -0.072313        -1.174057         1.078082
 H        -0.715042         0.504425         0.486868
 H        -0.500884        -0.908561        -0.661326
 H         1.704697         1.633563         1.847642
 H         2.345373        -0.173631         2.059863
 H         4.251273         2.296326         1.452009
 H         2.287881         3.157542        -0.591706
 H         3.657550         2.405475        -1.294656
 H         1.471035         0.858306        -2.239647
 H         4.078789        -0.440415        -1.241795
