19
Iteration:  1232
 C        -0.101193        -0.412157         0.274185
 C         1.346178         0.072329         0.046210
 C         2.031338         0.777206         1.243739
 C         3.231949         1.115412         0.422369
 O         4.423498         1.456367         1.081292
 C         2.728229         2.123299        -0.697867
 C         1.973813         0.819769        -1.203533
 C         3.172565        -0.012160        -0.623017
 O         2.375893        -1.105973        -0.309842
 H        -0.097190        -1.273023         0.899464
 H        -0.632183         0.521689         0.634024
 H        -0.445093        -0.800306        -0.775598
 H         1.613638         1.611672         1.807801
 H         2.271868        -0.257260         1.900454
 H         4.566123         0.785622         1.875094
 H         2.227247         3.094188        -0.374298
 H         3.533305         2.145096        -1.464167
 H         1.413815         0.658185        -2.099254
 H         4.118978        -0.137801        -1.107125
