19
Iteration:  1291
 C        -0.082476        -0.393428         0.132879
 C         1.349116         0.052605         0.033939
 C         2.128994         0.665056         1.300078
 C         3.293363         1.126050         0.438812
 O         4.444076         1.531770         1.040731
 C         2.682954         2.101169        -0.668848
 C         2.033148         0.795508        -1.143897
 C         3.171939         0.026558        -0.682781
 O         2.224240        -1.091995        -0.203742
 H        -0.073640        -1.257615         0.795530
 H        -0.815508         0.216256         0.564908
 H        -0.397078        -0.693934        -0.790160
 H         1.621609         1.459850         1.902598
 H         2.346079        -0.172723         2.037838
 H         4.614251         0.864059         1.738803
 H         2.169295         3.012593        -0.492234
 H         3.437219         2.349653        -1.404946
 H         1.419373         0.742262        -2.104431
 H         4.015902        -0.278196        -1.373334
