19
Iteration:  3686charge 0 multiplicity 1
 C        -0.007559        -0.520875         0.306736
 C         1.368510        -0.039580         0.148803
 C         2.048170         0.776838         1.167173
 C         3.274031         1.201741         0.422083
 O         4.475100         1.539228         1.085864
 C         2.667576         2.096042        -0.590637
 C         1.988789         0.774878        -1.167624
 C         3.145412        -0.037726        -0.762935
 O         2.288946        -1.139506        -0.301432
 H        -0.140041        -1.651402         0.766494
 H        -0.650716         0.082780         1.022194
 H        -0.633986        -0.376887        -0.697629
 H         1.560075         1.751114         1.572982
 H         2.236091         0.141343         1.953872
 H         4.498035         2.452879         0.952016
 H         2.117327         3.031742        -0.277904
 H         3.438571         2.323123        -1.397163
 H         1.435380         0.745942        -2.144127
 H         4.054767        -0.166522        -1.393411
