19
Iteration:  4592
 C        -0.088312        -0.340878         0.216370
 C         1.352954        -0.044149         0.102941
 C         2.166329         0.648778         1.347304
 C         3.276284         1.197614         0.316203
 O         4.500549         1.464851         0.959576
 C         2.480893         2.118503        -0.565454
 C         1.921669         0.856147        -1.146070
 C         3.182819        -0.025401        -0.752565
 O         2.461622        -1.104028        -0.250499
 H        -0.637572         0.453548         0.876319
 H        -0.511116        -0.321089        -0.832411
 H        -0.311469        -1.243103         0.693832
 H         1.501528         1.264596         1.952469
 H         2.655684        -0.227920         1.950127
 H         4.500195         1.282020         1.854105
 H         1.739263         2.805818        -0.110371
 H         2.784313         2.809800        -1.420867
 H         1.291643         0.720566        -2.134162
 H         4.049528        -0.490845        -1.217547
