19
Iteration:  2771charge 0 multiplicity 1
 C         0.004651        -0.548449         0.219211
 C         1.357009         0.003684         0.060607
 C         2.104991         0.646903         1.240376
 C         3.232064         1.163547         0.436587
 O         4.437016         1.482770         0.993193
 C         2.667874         2.120620        -0.599640
 C         1.892579         0.888822        -1.072106
 C         3.142591         0.082835        -0.747109
 O         2.344543        -1.015553        -0.234034
 H        -0.182094        -0.672460         1.248779
 H        -0.775293         0.170217        -0.186805
 H        -0.174628        -1.421682        -0.346625
 H         1.441148         1.241139         2.115367
 H         2.390350        -0.331170         1.674111
 H         4.981024         0.690350         1.206601
 H         2.128888         3.054349        -0.461541
 H         3.411960         2.475773        -1.324380
 H         1.310755         0.941019        -2.018951
 H         4.096473        -0.155566        -1.318789
