19
Iteration:  2465
 C        -0.059841        -0.566699         0.223124
 C         1.332297         0.005884         0.073400
 C         2.062819         0.636012         1.323838
 C         3.249168         1.170262         0.372191
 O         4.460585         1.520522         1.015548
 C         2.710033         2.153921        -0.639594
 C         1.994526         0.855454        -1.175772
 C         3.106195         0.061286        -0.714750
 O         2.338507        -1.026674        -0.212248
 H         0.160180        -1.534616         0.588728
 H        -0.740484         0.038672         0.960793
 H        -0.643986        -0.673549        -0.700784
 H         1.455982         1.354611         1.818473
 H         2.429697        -0.099308         2.035352
 H         4.840063         0.710356         1.235316
 H         2.174250         3.076447        -0.390887
 H         3.368338         2.623644        -1.388947
 H         1.453207         0.868032        -2.095960
 H         3.931231        -0.296453        -1.275473
