19
Iteration:  4920
 C        -0.007440        -0.343213         0.288462
 C         1.402909        -0.077301         0.099721
 C         2.138541         0.535739         1.298847
 C         3.300224         1.141722         0.407897
 O         4.484470         1.446531         0.962515
 C         2.484348         2.174715        -0.556309
 C         1.850638         0.826844        -1.083597
 C         3.177948         0.045693        -0.830272
 O         2.395717        -1.131444        -0.292172
 H        -0.287808         0.727167         0.152326
 H        -0.527770        -0.884477        -0.527311
 H        -0.277843        -0.724252         1.206813
 H         1.698418         1.347360         1.754264
 H         2.498635        -0.162822         2.017494
 H         4.301324         2.371898         1.256631
 H         1.726393         2.860780        -0.318602
 H         3.231762         2.779824        -1.065760
 H         1.380903         0.827768        -2.025037
 H         3.969516        -0.095821        -1.487812
