19
Iteration:  2482charge 0 multiplicity 1
 C        -0.021812        -0.552503         0.287558
 C         1.333851         0.005039         0.041289
 C         2.103314         0.644249         1.204682
 C         3.239314         1.191166         0.440776
 O         4.433995         1.509683         1.044052
 C         2.666509         2.144764        -0.679690
 C         1.893807         0.933100        -1.142623
 C         3.189050         0.008496        -0.700631
 O         2.311120        -1.045043        -0.249614
 H        -0.135623        -1.509997         0.901389
 H        -0.542146         0.091495         0.962201
 H        -0.435760        -0.812375        -0.726725
 H         1.580452         1.453087         1.901531
 H         2.447322        -0.286269         1.766627
 H         4.773265         0.762315         1.570802
 H         2.289024         3.179961        -0.443008
 H         3.580764         2.375354        -1.328146
 H         1.510039         0.721540        -2.189944
 H         4.112660        -0.137056        -1.355437
