19
Iteration:  3453
 C        -0.043913        -0.583789         0.145758
 C         1.376741         0.008646         0.133180
 C         2.044603         0.696310         1.274920
 C         3.315479         1.153251         0.429754
 O         4.566493         1.476024         0.946338
 C         2.598339         2.139282        -0.615908
 C         1.843472         0.837689        -1.108651
 C         3.138874         0.077127        -0.700485
 O         2.346747        -1.085465        -0.225923
 H         0.071809        -1.628239         0.472448
 H        -0.690126         0.062044         0.867707
 H        -0.460800        -0.357477        -0.892026
 H         1.544531         1.590638         1.623927
 H         2.251627         0.000393         1.964145
 H         4.601686         2.101117         1.639001
 H         2.062410         2.928756        -0.026334
 H         3.357678         2.553501        -1.295784
 H         1.374230         0.534524        -2.033230
 H         3.952539        -0.225607        -1.363072
