19
Iteration:  4595
 C        -0.088406        -0.335778         0.222954
 C         1.370466        -0.027267         0.118171
 C         2.177041         0.621018         1.341513
 C         3.275538         1.207603         0.315772
 O         4.507400         1.468164         0.957067
 C         2.487692         2.085592        -0.586995
 C         1.895654         0.852590        -1.159229
 C         3.199941         0.016486        -0.737647
 O         2.439572        -1.106692        -0.243436
 H        -0.653892         0.451224         0.859067
 H        -0.583776        -0.295036        -0.787066
 H        -0.300885        -1.375624         0.653861
 H         1.490005         1.211517         1.948571
 H         2.552292        -0.217367         1.867133
 H         4.451731         1.313598         1.932611
 H         1.714688         2.761740        -0.093599
 H         2.915042         2.761998        -1.361763
 H         1.340902         0.752043        -2.190830
 H         4.075784        -0.435775        -1.238852
