19
Iteration:  1822
 C        -0.076054        -0.510007         0.210172
 C         1.370837        -0.051101         0.024317
 C         2.043360         0.660751         1.260322
 C         3.247867         1.156507         0.454988
 O         4.474745         1.561885         1.051316
 C         2.759137         2.149070        -0.670406
 C         1.901370         0.860942        -1.162325
 C         3.093496         0.037573        -0.701088
 O         2.355454        -1.085576        -0.230331
 H        -0.152366        -1.450821         0.845195
 H        -0.433377         0.424816         0.838565
 H        -0.783415        -0.639719        -0.657598
 H         1.475293         1.454993         1.821015
 H         2.203905        -0.080147         1.934313
 H         4.817711         0.764747         1.524801
 H         2.308018         3.179690        -0.579575
 H         3.637623         2.315573        -1.383380
 H         1.532358         0.775691        -2.120266
 H         3.986535        -0.251009        -1.163567
