19
Iteration:  3508
 C        -0.006412        -0.426478         0.228150
 C         1.360437         0.025627         0.076906
 C         2.156573         0.593290         1.307268
 C         3.240950         1.237812         0.416126
 O         4.481541         1.480802         1.010267
 C         2.469443         2.096176        -0.684725
 C         1.927582         0.839691        -1.185297
 C         3.189160         0.052323        -0.689503
 O         2.369025        -1.121036        -0.245033
 H         0.036264        -1.459537         0.683412
 H        -0.463759         0.394971         0.868827
 H        -0.775975        -0.568676        -0.609155
 H         1.688650         1.284502         1.956893
 H         2.562642        -0.107819         1.852464
 H         4.352933         1.554260         1.903527
 H         2.010315         3.080440        -0.472787
 H         3.253585         2.325394        -1.417416
 H         1.549835         0.747670        -2.160884
 H         4.081655        -0.274305        -1.291342
