19
Iteration:  3326
 C        -0.064047        -0.471288         0.149168
 C         1.399711        -0.041696         0.127097
 C         2.118180         0.677130         1.242487
 C         3.301067         1.174983         0.419028
 O         4.494230         1.610100         0.948011
 C         2.571900         2.112508        -0.510699
 C         1.937100         0.801079        -1.028083
 C         3.149397        -0.036066        -0.799956
 O         2.339174        -1.101747        -0.282852
 H        -0.392298        -0.890427         1.165479
 H        -0.472059         0.498684         0.097411
 H        -0.180273        -1.239843        -0.675722
 H         1.463974         1.488119         1.585548
 H         2.407666        -0.034004         2.102887
 H         4.681540         1.077020         1.837050
 H         1.898406         2.794306         0.008811
 H         3.160598         2.734021        -1.173168
 H         1.334705         0.871955        -1.902223
 H         3.765770        -0.276952        -1.694469
