19
Iteration:  1397charge 0 multiplicity 1
 C        -0.118985        -0.419790         0.285952
 C         1.364467        -0.049112         0.047217
 C         2.016756         0.768350         1.228092
 C         3.296341         1.062921         0.461977
 O         4.468528         1.583798         1.120766
 C         2.736079         2.078514        -0.623528
 C         1.975339         0.891213        -1.172188
 C         3.191638         0.007302        -0.846078
 O         2.310688        -1.173423        -0.278327
 H        -0.091753        -1.068403         1.180067
 H        -0.758047         0.601693         0.293262
 H        -0.681191        -1.127138        -0.527073
 H         1.470828         1.611310         1.439295
 H         2.179726         0.097914         2.141634
 H         4.674263         0.907534         1.721708
 H         2.120329         2.934802        -0.153752
 H         3.537525         2.399008        -1.364646
 H         1.386794         1.001752        -2.138537
 H         4.113820        -0.243018        -1.461488
