19
Iteration:  4390charge 0 multiplicity 1
 C        -0.083745        -0.481331         0.258270
 C         1.429295        -0.017549         0.077882
 C         2.113950         0.662638         1.312289
 C         3.245169         1.172137         0.409479
 O         4.528083         1.304309         1.012950
 C         2.519539         2.153499        -0.639728
 C         1.904267         0.906316        -1.199090
 C         3.172549         0.076594        -0.803951
 O         2.389349        -1.020461        -0.189573
 H        -0.387424        -0.051870         1.183386
 H        -0.785463        -0.231659        -0.559941
 H        -0.004113        -1.615228         0.210160
 H         1.466703         1.488315         1.847826
 H         2.361201        -0.072089         2.083656
 H         4.498183         2.074332         1.640923
 H         1.808635         3.010136        -0.474486
 H         3.198420         2.444517        -1.458243
 H         1.323247         0.682585        -2.115497
 H         4.192794        -0.188898        -1.326363
