19
Iteration:  1585charge 0 multiplicity 1
 C        -0.087759        -0.408925         0.133679
 C         1.342597         0.042298         0.038867
 C         2.122072         0.617399         1.288568
 C         3.211487         1.117460         0.422781
 O         4.498828         1.457979         0.984481
 C         2.619203         2.180692        -0.611096
 C         1.949641         0.882601        -1.173138
 C         3.151321        -0.003426        -0.665081
 O         2.377755        -1.050262        -0.172281
 H        -0.270306        -0.938300         1.096952
 H        -0.893176         0.269799        -0.174445
 H        -0.254465        -1.199959        -0.536842
 H         1.742771         1.295595         1.884681
 H         2.432362        -0.306410         1.821000
 H         4.655986         1.234390         1.905001
 H         1.974003         2.994516        -0.387159
 H         3.320130         2.497794        -1.353795
 H         1.515136         0.689223        -2.134742
 H         4.008351        -0.435987        -1.143331
