19
Iteration:  1841charge 0 multiplicity 1
 C        -0.068617        -0.495545         0.239132
 C         1.379450         0.031511         0.085837
 C         1.969213         0.755254         1.208078
 C         3.282954         1.121003         0.400421
 O         4.505684         1.528797         1.004098
 C         2.649498         2.087453        -0.561524
 C         1.997736         0.863153        -1.128619
 C         3.201045        -0.031836        -0.760666
 O         2.334891        -1.093429        -0.234743
 H         0.082861        -1.517493         0.520427
 H        -0.797638         0.098733         0.822292
 H        -0.553756        -0.569453        -0.776206
 H         1.270882         1.656072         1.535311
 H         2.100286         0.231437         2.148985
 H         4.655622         1.006258         1.759039
 H         2.058896         2.901727        -0.113128
 H         3.380948         2.461361        -1.281552
 H         1.415752         0.889724        -2.085731
 H         3.964525        -0.339504        -1.444954
