19
Iteration:  2217charge 0 multiplicity 1
 C        -0.017842        -0.446212         0.318882
 C         1.403511        -0.055206         0.052169
 C         2.024214         0.719912         1.178306
 C         3.328232         1.113026         0.385679
 O         4.415448         1.625665         1.105197
 C         2.685433         2.096152        -0.554359
 C         1.941092         0.857419        -1.156348
 C         3.177244         0.014378        -0.853793
 O         2.305774        -1.199097        -0.276468
 H        -0.125977        -1.363056         0.957496
 H        -0.503537         0.542655         0.679660
 H        -0.561280        -0.613628        -0.637662
 H         1.377631         1.601948         1.570226
 H         2.168110         0.190033         2.122181
 H         4.717781         1.031261         1.743908
 H         2.036259         2.770820        -0.019343
 H         3.394737         2.650205        -1.184140
 H         1.485465         0.855855        -2.155129
 H         3.927385        -0.331892        -1.599106
