19
Iteration:  1563charge 0 multiplicity 1
 C        -0.042160        -0.421596         0.197995
 C         1.373873        -0.022801         0.060054
 C         2.040067         0.740959         1.204843
 C         3.318333         1.147607         0.383576
 O         4.523239         1.483578         1.070982
 C         2.605584         2.101123        -0.552242
 C         1.985891         0.839920        -1.144228
 C         3.187926         0.015695        -0.754218
 O         2.295239        -1.115672        -0.261027
 H        -0.285436        -0.591827         1.296415
 H        -0.754906         0.312704        -0.231304
 H        -0.428676        -1.284787        -0.254642
 H         1.562599         1.543903         1.476630
 H         2.304336         0.073728         2.047747
 H         4.526727         1.034104         1.974599
 H         1.780989         2.672820        -0.142672
 H         3.103712         2.777898        -1.200578
 H         1.457742         0.802753        -2.063120
 H         3.968100        -0.284676        -1.427801
