19
Iteration:  4847charge 0 multiplicity 1
 C        -0.029208        -0.664591         0.243872
 C         1.318672         0.054656         0.130718
 C         2.073100         0.758315         1.256525
 C         3.314550         1.147980         0.418329
 O         4.503687         1.477729         0.997411
 C         2.709950         2.207298        -0.647092
 C         1.876216         0.927949        -1.076363
 C         3.057368         0.052069        -0.764984
 O         2.345093        -1.117268        -0.246689
 H        -0.852628         0.024867         0.602707
 H        -0.315927        -1.106424        -0.742690
 H         0.094391        -1.503045         0.977343
 H         1.663419         1.744044         1.763626
 H         2.267837         0.020334         2.032173
 H         5.053075         0.588510         0.903613
 H         2.195319         3.104450        -0.173480
 H         3.381691         2.591217        -1.414727
 H         1.218439         0.702462        -1.896020
 H         3.822482         0.022099        -1.605859
