19
Iteration:  3246
 C         0.000648        -0.568038         0.245712
 C         1.394289        -0.005242         0.133508
 C         1.996911         0.795046         1.263556
 C         3.314817         1.132562         0.413021
 O         4.518070         1.527716         1.012286
 C         2.592640         2.124724        -0.557532
 C         1.900981         0.826781        -1.082465
 C         3.132750         0.022509        -0.871873
 O         2.362882        -1.070858        -0.261484
 H         0.191773        -1.608386         0.614274
 H        -0.721477         0.021882         0.773339
 H        -0.573550        -0.711194        -0.737713
 H         1.412230         1.871266         1.299230
 H         2.070441         0.289969         2.187207
 H         4.713426         0.631809         1.503007
 H         2.095615         2.983817        -0.039886
 H         3.327776         2.435135        -1.327081
 H         1.431432         0.839586        -2.053564
 H         3.922122        -0.244548        -1.569890
