19
Iteration:   632charge 0 multiplicity 1
 C        -0.047528        -0.391760         0.016083
 C         1.344914         0.103113         0.106652
 C         2.030956         0.681712         1.336611
 C         3.300216         1.137689         0.423862
 O         4.516623         1.318064         0.970803
 C         2.556947         2.177549        -0.697082
 C         1.967476         0.888253        -1.158581
 C         3.182744        -0.030690        -0.653695
 O         2.341611        -1.064048        -0.061576
 H        -0.278483        -0.857853         0.970513
 H        -0.819313         0.355514        -0.344538
 H        -0.170761        -1.111777        -0.913303
 H         1.534074         1.423726         1.834713
 H         2.378112        -0.196350         1.885105
 H         4.307776         1.531687         1.847623
 H         2.166558         3.177887        -0.391470
 H         3.299220         2.309817        -1.514755
 H         1.639766         0.598334        -2.137036
 H         4.141416        -0.332231        -1.076019
