19
Iteration:  2659charge 0 multiplicity 1
 C        -0.045513        -0.530533         0.280198
 C         1.338697        -0.029278         0.039508
 C         2.075517         0.765577         1.262178
 C         3.309121         1.159873         0.395852
 O         4.566597         1.517364         1.058183
 C         2.591716         2.103600        -0.504970
 C         1.952756         0.822492        -1.171368
 C         3.109807        -0.008581        -0.860772
 O         2.332072        -1.087025        -0.273224
 H         0.156673        -1.509277         0.577589
 H        -0.596989         0.145346         0.891273
 H        -0.615787        -0.448262        -0.609305
 H         1.400722         1.747045         1.368740
 H         2.202746         0.074088         2.027325
 H         4.268344         1.411124         2.034748
 H         2.044072         2.842737         0.075914
 H         3.211735         2.519932        -1.300176
 H         1.669612         0.962969        -2.192525
 H         3.858584        -0.276884        -1.535922
