19
Iteration:  4835
 C        -0.036958        -0.635463         0.273337
 C         1.332575        -0.009567         0.159041
 C         2.084518         0.728922         1.312340
 C         3.287135         1.173419         0.335321
 O         4.543229         1.419616         1.069715
 C         2.619004         2.138631        -0.669405
 C         1.867765         0.953869        -1.148263
 C         3.083618         0.074290        -0.774854
 O         2.339315        -1.012575        -0.242236
 H        -0.911229        -0.069841         0.727066
 H        -0.346751        -1.030276        -0.745975
 H         0.162394        -1.547325         0.844846
 H         1.412894         1.636895         1.613356
 H         2.414293         0.139358         2.134675
 H         5.284832         0.828049         0.779548
 H         2.094284         3.067457        -0.304304
 H         3.362837         2.350100        -1.437086
 H         1.556806         1.056165        -2.146516
 H         3.950707        -0.271549        -1.361630
