19
Iteration:  1689charge 0 multiplicity 1
 C        -0.076711        -0.493869         0.228552
 C         1.350844        -0.012628         0.076494
 C         2.035361         0.757088         1.183550
 C         3.278910         1.127139         0.419822
 O         4.493564         1.521184         1.100824
 C         2.704718         2.122271        -0.608728
 C         1.962953         0.831699        -1.134220
 C         3.112140        -0.019340        -0.754671
 O         2.369075        -1.077891        -0.294473
 H        -0.312263        -1.244331         1.002282
 H        -0.611942         0.338324         0.810916
 H        -0.604974        -0.813693        -0.754547
 H         1.386855         1.696776         1.425020
 H         2.249063         0.160854         2.043005
 H         4.697937         0.878143         1.755295
 H         2.053912         2.974147        -0.207976
 H         3.559099         2.513048        -1.236638
 H         1.395844         0.704948        -2.058373
 H         3.927742        -0.293094        -1.425450
