19
Iteration:  4973charge 0 multiplicity 1
 C        -0.035563        -0.597142         0.255996
 C         1.356168         0.055000         0.141959
 C         2.119466         0.632210         1.345435
 C         3.351579         1.218739         0.379262
 O         4.489527         1.473167         1.036481
 C         2.621183         2.171261        -0.563851
 C         1.901996         0.894662        -1.172214
 C         3.076258         0.007554        -0.813865
 O         2.301879        -1.073438        -0.271207
 H        -0.838104         0.016468         0.735873
 H        -0.382503        -0.881946        -0.778534
 H         0.106433        -1.512310         0.803545
 H         1.454491         1.336986         1.826136
 H         2.567241        -0.132995         2.067897
 H         5.236719         1.711663         0.427319
 H         2.046774         2.990447        -0.075119
 H         3.238684         2.661851        -1.397509
 H         1.336648         0.832915        -2.075307
 H         3.833076        -0.249670        -1.458229
