19
Iteration:  1473charge 0 multiplicity 1
 C        -0.040293        -0.432361         0.067283
 C         1.373485        -0.049346         0.098021
 C         1.961430         0.732258         1.264141
 C         3.312103         1.103603         0.419616
 O         4.558899         1.501394         0.926492
 C         2.586453         2.139120        -0.520464
 C         1.918330         0.862951        -1.104480
 C         3.182756        -0.028933        -0.682854
 O         2.347929        -1.131339        -0.167021
 H        -0.145299        -1.397367         0.608920
 H        -0.533264         0.513506         0.611557
 H        -0.430536        -0.356367        -1.061601
 H         1.566387         1.709081         1.363059
 H         2.014647         0.220865         2.266715
 H         4.572320         0.987581         1.822559
 H         2.154619         3.186549        -0.330978
 H         3.306643         2.517839        -1.303801
 H         1.370073         0.819641        -2.088889
 H         4.045468        -0.301606        -1.344499
