19
Iteration:  1016charge 0 multiplicity 1
 C        -0.166324        -0.365213         0.093387
 C         1.375421        -0.035985         0.117466
 C         1.999274         0.756755         1.283113
 C         3.239270         1.185721         0.412687
 O         4.503895         1.389862         0.989842
 C         2.667665         2.122873        -0.663093
 C         1.984234         0.784768        -1.120742
 C         3.198382        -0.025406        -0.749244
 O         2.395817        -1.079451        -0.153679
 H        -0.538707        -0.767053         1.027767
 H        -0.678715         0.640770         0.045684
 H        -0.376302        -1.176159        -0.634068
 H         1.471532         1.520447         1.920340
 H         2.382278        -0.045415         1.904994
 H         4.425110         1.600241         1.954605
 H         2.217090         3.019313        -0.317852
 H         3.487968         2.506692        -1.240448
 H         1.511144         0.673469        -2.075464
 H         4.089030        -0.272432        -1.261665
