19
Iteration:  4633charge 0 multiplicity 1
 C        -0.074791        -0.528598         0.292781
 C         1.383363        -0.003539         0.119055
 C         2.062502         0.684304         1.262743
 C         3.277392         1.202883         0.405770
 O         4.550462         1.516805         0.950177
 C         2.671040         2.086215        -0.608461
 C         1.915757         0.921249        -1.133563
 C         3.138486        -0.053079        -0.759136
 O         2.297371        -1.115707        -0.331465
 H        -0.595240        -0.063421         1.110050
 H        -0.509389        -0.539720        -0.706582
 H        -0.051900        -1.523133         0.776407
 H         1.457906         1.509933         1.677964
 H         2.366800        -0.061104         2.105647
 H         4.210446         1.876452         1.886198
 H         2.227601         2.871775         0.001245
 H         3.438782         2.634696        -1.200947
 H         1.289433         1.127195        -1.996618
 H         4.075916        -0.212947        -1.327932
