19
Iteration:  2946charge 0 multiplicity 1
 C        -0.023334        -0.514365         0.219650
 C         1.391568        -0.075842         0.100545
 C         2.039160         0.724379         1.328822
 C         3.296316         1.162187         0.436438
 O         4.494808         1.479827         1.003251
 C         2.617574         2.154217        -0.546189
 C         1.865401         0.928945        -1.151288
 C         3.078897         0.060381        -0.763883
 O         2.444961        -1.103497        -0.314223
 H        -0.346396        -0.917634         1.240334
 H        -0.800384         0.387932        -0.043686
 H        -0.312580        -1.350344        -0.433264
 H         1.338460         1.603390         1.486251
 H         2.230309         0.181699         2.118411
 H         4.878149         0.679352         1.214924
 H         2.033557         2.879105         0.027801
 H         3.339062         2.496092        -1.329605
 H         1.440375         0.746461        -2.154420
 H         3.939385        -0.247827        -1.452568
