19
Iteration:  4612
 C        -0.054878        -0.387909         0.251985
 C         1.350779        -0.031954         0.025168
 C         2.160252         0.575817         1.241290
 C         3.264213         1.086256         0.446145
 O         4.525373         1.524277         0.957020
 C         2.509412         2.140557        -0.588429
 C         1.959051         0.798764        -1.125018
 C         3.140637         0.075152        -0.757585
 O         2.328098        -1.073983        -0.225167
 H        -0.486337         0.176700         1.075639
 H        -0.526580        -0.297903        -0.726042
 H        -0.130458        -1.358065         0.653636
 H         1.791802         1.464190         1.786125
 H         2.511415        -0.259120         1.984475
 H         4.532671         1.672827         1.899108
 H         1.994230         3.075309        -0.376000
 H         3.314619         2.492120        -1.303012
 H         1.365602         0.488169        -1.996888
 H         3.981559         0.013211        -1.447107
