19
Iteration:  2935
 C        -0.028982        -0.538027         0.236007
 C         1.380156        -0.053784         0.091635
 C         2.024348         0.689889         1.244721
 C         3.219102         1.159273         0.454487
 O         4.510661         1.483311         1.002626
 C         2.629087         2.135352        -0.568724
 C         1.875528         0.851624        -1.084010
 C         3.138114         0.125911        -0.750731
 O         2.391166        -1.105161        -0.294546
 H        -0.189003        -0.978351         1.260555
 H        -0.706800         0.461745         0.087795
 H        -0.226548        -1.196068        -0.614874
 H         1.460736         1.559398         1.719050
 H         2.250923         0.092792         1.995754
 H         5.089247         0.658780         1.147487
 H         2.174983         3.131634        -0.435046
 H         3.462852         2.409760        -1.261027
 H         1.351864         0.956168        -2.042016
 H         4.010336         0.163628        -1.477467
