19
Iteration:  1064charge 0 multiplicity 1
 C        -0.096752        -0.526448         0.114748
 C         1.338455         0.105936         0.109716
 C         2.068047         0.737480         1.282253
 C         3.272805         1.166642         0.406211
 O         4.489063         1.387241         0.984723
 C         2.699871         2.163735        -0.654742
 C         2.056880         0.872299        -1.238394
 C         3.112128        -0.081018        -0.669734
 O         2.292119        -1.052638        -0.094963
 H        -0.214451        -1.496490         0.678795
 H        -0.742948         0.165737         0.558174
 H        -0.321744        -0.775652        -0.860271
 H         1.614585         1.783770         1.699239
 H         2.242166         0.071262         2.154104
 H         4.343107         1.370220         1.972959
 H         1.937641         2.988467        -0.573123
 H         3.511264         2.625713        -1.312817
 H         1.650276         0.807922        -2.287979
 H         4.022739        -0.405176        -1.275735
