19
Iteration:  1184charge 0 multiplicity 1
 C        -0.112681        -0.401052        -0.047464
 C         1.349757         0.051907         0.090761
 C         2.065584         0.786393         1.339829
 C         3.350936         1.029314         0.406477
 O         4.515784         1.522062         0.947770
 C         2.633767         2.082308        -0.539689
 C         1.911500         0.846020        -1.068297
 C         3.195413         0.002979        -0.717293
 O         2.298516        -1.163198        -0.133461
 H        -0.356325        -0.900970         1.059714
 H        -0.742975         0.417584        -0.350635
 H        -0.074581        -1.236438        -0.746485
 H         1.534667         1.815206         1.429444
 H         2.146921         0.370258         2.303256
 H         4.850854         0.855740         1.573616
 H         1.965049         2.874395        -0.120641
 H         3.434448         2.399126        -1.248991
 H         1.338542         0.919617        -2.013772
 H         4.101444        -0.278145        -1.296098
