19
Iteration:  1999charge 0 multiplicity 1
 C        -0.073915        -0.526499         0.117297
 C         1.368287        -0.022084         0.097099
 C         2.091345         0.737532         1.270910
 C         3.307088         1.174352         0.379211
 O         4.537057         1.475801         0.987873
 C         2.551594         2.136181        -0.575264
 C         1.930587         0.874869        -1.102638
 C         3.153754        -0.012252        -0.730881
 O         2.344786        -1.024078        -0.198647
 H        -0.187954        -1.279801         1.010745
 H        -0.880010         0.206400         0.276148
 H        -0.114996        -0.962864        -0.897851
 H         1.435581         1.770533         1.397830
 H         2.195921         0.111848         2.182749
 H         4.647975         0.853380         1.818056
 H         1.956379         2.822018         0.029470
 H         3.357936         2.446092        -1.288419
 H         1.452694         0.686263        -2.105172
 H         4.043330        -0.465256        -1.333655
