19
Iteration:   372
 C        -0.091252        -0.342287         0.089665
 C         1.359465        -0.056688         0.107414
 C         2.014008         0.670984         1.170342
 C         3.297916         1.121374         0.402699
 O         4.463083         1.566388         1.083516
 C         2.770293         2.108197        -0.561329
 C         1.965580         0.862673        -1.096704
 C         3.135437        -0.051329        -0.782136
 O         2.302236        -1.151005        -0.183111
 H        -0.207935        -0.984453         0.999384
 H        -0.752728         0.569661         0.126048
 H        -0.447183        -0.898001        -0.807851
 H         1.602592         1.601767         1.487578
 H         2.241219         0.127957         2.062729
 H         4.667084         1.109951         1.907893
 H         2.317918         3.049117        -0.223847
 H         3.523417         2.448648        -1.278797
 H         1.480005         0.699508        -2.038415
 H         3.869900        -0.372753        -1.410758
