19
Iteration:  4031
 C        -0.046001        -0.627913         0.207690
 C         1.265100        -0.000774         0.113365
 C         2.059292         0.734219         1.252117
 C         3.234539         1.209455         0.422024
 O         4.507178         1.456361         0.989357
 C         2.661323         2.150172        -0.709203
 C         1.940283         0.884050        -1.136410
 C         3.126454         0.030841        -0.666068
 O         2.402944        -1.010115        -0.175867
 H        -0.429169        -0.930318         1.166617
 H        -0.889048         0.085867         0.133872
 H        -0.083882        -1.486175        -0.482957
 H         1.468449         1.480388         1.891439
 H         2.413253        -0.175851         1.942033
 H         5.096223         0.753256         0.960900
 H         2.130518         3.092215        -0.447783
 H         3.455805         2.392718        -1.426517
 H         1.274251         0.976033        -2.027602
 H         4.067212        -0.126486        -1.336294
