19
Iteration:  3371charge 0 multiplicity 1
 C        -0.030730        -0.490733         0.240260
 C         1.394944        -0.030193         0.108881
 C         2.075222         0.641184         1.275131
 C         3.252241         1.187242         0.393183
 O         4.499473         1.444905         0.961524
 C         2.605624         2.196530        -0.568424
 C         1.915789         0.827787        -1.115207
 C         3.119774         0.074908        -0.768478
 O         2.375916        -1.075729        -0.291639
 H        -0.433034        -0.808471         1.268671
 H        -0.746541         0.292490        -0.136589
 H        -0.098811        -1.508953        -0.206507
 H         1.437257         1.287592         1.905990
 H         2.630723        -0.168520         1.951934
 H         4.355073         1.734941         1.937375
 H         1.995786         3.012797        -0.207274
 H         3.230884         2.645692        -1.355259
 H         1.536350         0.719159        -2.190199
 H         4.052473        -0.239600        -1.290038
