19
Iteration:  2366charge 0 multiplicity 1
 C        -0.064886        -0.464604         0.228935
 C         1.391612        -0.046225         0.074809
 C         2.106679         0.710907         1.199742
 C         3.306597         1.161645         0.436646
 O         4.488014         1.607074         1.079326
 C         2.598613         2.099140        -0.508550
 C         1.941478         0.898231        -1.129796
 C         3.094404        -0.092033        -0.822702
 O         2.363997        -1.166124        -0.357370
 H        -0.201692        -0.500799         1.280146
 H        -0.773696         0.442315         0.053315
 H        -0.330354        -1.417975        -0.151491
 H         1.490871         1.636143         1.317316
 H         2.405113         0.210253         2.207857
 H         4.674118         1.019655         1.831697
 H         2.002838         2.837700         0.127466
 H         3.102307         2.746773        -1.285435
 H         1.496533         0.907039        -2.137800
 H         3.969089        -0.389024        -1.363583
