19
Iteration:  1203
 C        -0.052590        -0.465257         0.044155
 C         1.339561         0.041366         0.078366
 C         2.036277         0.760165         1.222400
 C         3.318390         1.148410         0.388310
 O         4.567807         1.499512         1.026107
 C         2.677876         2.131762        -0.547125
 C         1.970155         0.864543        -1.142602
 C         3.058153        -0.128945        -0.705815
 O         2.298665        -1.048412        -0.106879
 H        -0.354197        -1.115160         0.937818
 H        -0.688711         0.421575        -0.060359
 H        -0.086803        -1.141084        -0.762519
 H         1.445151         1.531601         1.698007
 H         2.249802        -0.014121         1.902077
 H         4.777930         0.846064         1.783538
 H         2.061217         2.911580        -0.134439
 H         3.291136         2.643215        -1.301263
 H         1.400700         0.791381        -2.171298
 H         3.827234        -0.556741        -1.458596
