19
Iteration:  2467
 C        -0.055367        -0.577128         0.232699
 C         1.337069         0.010125         0.075034
 C         2.061777         0.627886         1.297951
 C         3.241674         1.174849         0.369396
 O         4.456328         1.521922         1.016519
 C         2.717602         2.160498        -0.638548
 C         1.997412         0.855022        -1.164615
 C         3.106020         0.074650        -0.712985
 O         2.329979        -1.019006        -0.210317
 H         0.148849        -1.564216         0.628146
 H        -0.677398         0.044138         0.849791
 H        -0.678671        -0.615233        -0.651705
 H         1.503003         1.322113         1.838189
 H         2.440445        -0.187717         2.058777
 H         4.803196         0.684777         1.240569
 H         2.138603         3.079779        -0.426201
 H         3.429151         2.556676        -1.404567
 H         1.463844         0.825376        -2.087691
 H         3.929435        -0.338355        -1.262957
