19
Iteration:  2566charge 0 multiplicity 1
 C        -0.086394        -0.463247         0.122822
 C         1.373722        -0.044288         0.117713
 C         2.107420         0.583107         1.349128
 C         3.259398         1.191058         0.432395
 O         4.537736         1.571861         0.920027
 C         2.592545         2.135777        -0.536518
 C         1.911561         0.899723        -1.139595
 C         3.115742         0.015744        -0.714565
 O         2.360999        -1.102009        -0.254051
 H        -0.291314        -0.772298         1.180334
 H        -0.695470         0.340665        -0.289859
 H        -0.392846        -1.264926        -0.565962
 H         1.628592         1.343008         1.786326
 H         2.396626        -0.208812         2.115619
 H         4.809337         0.748110         1.367482
 H         1.898646         2.947833        -0.141725
 H         3.406781         2.415070        -1.243474
 H         1.375384         0.963986        -2.104321
 H         4.155343        -0.084813        -1.151100
