19
Iteration:  4785charge 0 multiplicity 1
 C        -0.086692        -0.407840         0.345165
 C         1.400001        -0.060880         0.089840
 C         2.115022         0.679365         1.228722
 C         3.260338         1.132101         0.390286
 O         4.488496         1.426341         1.064179
 C         2.539896         2.116467        -0.599508
 C         1.910512         0.835313        -1.146440
 C         3.172979        -0.001342        -0.814597
 O         2.404628        -1.065953        -0.282209
 H        -0.516639         0.513185         0.651632
 H        -0.630802        -0.555485        -0.574143
 H        -0.351031        -1.358661         0.884566
 H         1.657558         1.579187         1.531530
 H         2.384466        -0.068840         2.012121
 H         4.776632         2.375945         0.874816
 H         2.015220         2.911685        -0.054679
 H         3.272830         2.638825        -1.251537
 H         1.205145         0.782499        -2.007898
 H         4.113219        -0.358748        -1.310958
