19
Iteration:  4401
 C        -0.064030        -0.469532         0.211465
 C         1.334293        -0.011013         0.065663
 C         2.108849         0.640667         1.314466
 C         3.292195         1.158805         0.441944
 O         4.547211         1.404377         0.984640
 C         2.559237         2.179754        -0.660614
 C         1.847981         0.808946        -1.140475
 C         3.181524         0.069156        -0.799739
 O         2.385495        -1.071453        -0.219248
 H        -0.579316        -0.108137         1.072833
 H        -0.720036        -0.183435        -0.623919
 H        -0.229101        -1.544322         0.521914
 H         1.527278         1.566080         1.792945
 H         2.421185        -0.149701         2.009752
 H         4.528981         2.126052         1.784817
 H         2.089808         3.025798        -0.082684
 H         3.411193         2.573833        -1.231898
 H         1.289777         0.812229        -2.110105
 H         4.178241        -0.219029        -1.391100
