19
Iteration:  2969charge 0 multiplicity 1
 C        -0.011890        -0.506004         0.203700
 C         1.358787         0.011789         0.055399
 C         2.133254         0.665584         1.209103
 C         3.347217         1.150887         0.388720
 O         4.492408         1.478037         0.995028
 C         2.509505         2.173856        -0.503958
 C         1.916862         0.864533        -1.116742
 C         3.180342         0.061817        -0.782586
 O         2.321306        -1.077468        -0.209904
 H        -0.397802        -0.884343         1.215900
 H        -0.878910         0.241408        -0.172304
 H        -0.115084        -1.427299        -0.400262
 H         1.699319         1.567834         1.754034
 H         2.409783        -0.073626         1.809053
 H         4.695388         0.783516         1.792734
 H         1.770631         2.789396        -0.009355
 H         3.181566         2.617645        -1.241674
 H         1.362849         0.899373        -2.072150
 H         4.005346        -0.232603        -1.495945
