19
Iteration:  2150charge 0 multiplicity 1
 C        -0.066308        -0.521651         0.089574
 C         1.347586         0.034409         0.104600
 C         2.081836         0.791963         1.286898
 C         3.289764         1.107591         0.390680
 O         4.518514         1.486129         0.914994
 C         2.597038         2.077621        -0.509870
 C         1.894249         0.887286        -1.078542
 C         3.194470        -0.002799        -0.738328
 O         2.378300        -1.083024        -0.183677
 H        -0.486671        -0.955382         1.032198
 H        -0.772830         0.346072        -0.404190
 H        -0.053637        -1.406116        -0.559749
 H         1.517085         1.718261         1.799667
 H         2.182254        -0.069084         2.127145
 H         4.636196         0.844502         1.736814
 H         1.892614         2.787050        -0.023785
 H         3.207745         2.642169        -1.247618
 H         1.372324         0.914778        -2.060196
 H         4.056197        -0.008739        -1.455006
