19
Iteration:   568
 C        -0.052086        -0.448231         0.194721
 C         1.356195         0.061734         0.006347
 C         2.053964         0.708886         1.255364
 C         3.236201         1.176454         0.379990
 O         4.454141         1.379777         1.161270
 C         2.771536         2.069847        -0.670216
 C         1.978455         0.872522        -1.230679
 C         3.128999        -0.011002        -0.666265
 O         2.275519        -1.067469        -0.204374
 H        -0.120968        -1.010775         1.178895
 H        -0.680466         0.501781         0.274757
 H        -0.418782        -0.962817        -0.709864
 H         1.463266         1.402517         1.955964
 H         2.529549        -0.157085         1.775904
 H         4.418327         2.172257         1.624413
 H         2.261429         3.046336        -0.425190
 H         3.518023         2.084889        -1.490560
 H         1.661070         0.836593        -2.264140
 H         3.968905        -0.323733        -1.269727
