19
Iteration:  2867
 C        -0.062281        -0.470147         0.215983
 C         1.385857        -0.072840         0.091820
 C         2.059387         0.644993         1.268248
 C         3.261099         1.119295         0.444480
 O         4.555182         1.565168         0.971236
 C         2.611038         2.107010        -0.603119
 C         1.889903         0.904999        -1.098340
 C         3.113296         0.078402        -0.722266
 O         2.395896        -1.165686        -0.295868
 H        -0.196640        -1.501719         0.588139
 H        -0.681491         0.319457         0.861459
 H        -0.650407        -0.228822        -0.718053
 H         1.531143         1.454642         1.748830
 H         2.326538        -0.124457         1.951510
 H         4.537681         1.366837         1.864978
 H         2.051412         3.050078        -0.271039
 H         3.350496         2.505983        -1.371127
 H         1.385329         0.729491        -2.055076
 H         3.993185         0.046767        -1.383431
