19
Iteration:  3409charge 0 multiplicity 1
 C         0.010366        -0.580473         0.289208
 C         1.329477        -0.021529         0.095922
 C         2.012729         0.719142         1.228250
 C         3.264711         1.187151         0.326082
 O         4.535072         1.318668         1.031733
 C         2.600823         2.198912        -0.546299
 C         1.895760         0.839290        -1.160414
 C         3.161664         0.085146        -0.765088
 O         2.399338        -1.020845        -0.230747
 H         0.056185        -1.211135         1.196550
 H        -0.840133         0.221242         0.220489
 H        -0.269171        -1.205240        -0.610609
 H         1.369666         1.538103         1.613283
 H         2.279167         0.061821         1.952803
 H         4.408832         2.142378         1.422569
 H         2.007862         3.031914        -0.068637
 H         3.235272         2.533055        -1.388577
 H         1.441883         0.829864        -2.171220
 H         4.016907        -0.091453        -1.405561
