19
Iteration:  4976
 C        -0.028485        -0.600084         0.257049
 C         1.329544         0.043802         0.151791
 C         2.127990         0.648919         1.341931
 C         3.308645         1.235289         0.382449
 O         4.496381         1.459682         1.038515
 C         2.630555         2.151374        -0.588084
 C         1.889559         0.906227        -1.150699
 C         3.088350         0.011224        -0.832236
 O         2.319149        -1.068077        -0.267978
 H        -0.811758        -0.011760         0.778307
 H        -0.294860        -0.821238        -0.787503
 H         0.139902        -1.487317         0.812151
 H         1.511649         1.379598         1.833824
 H         2.462153        -0.075752         2.012603
 H         5.201866         1.561518         0.451800
 H         1.942308         2.818612        -0.096703
 H         3.324697         2.613124        -1.317992
 H         1.297379         0.986892        -2.072896
 H         3.978567        -0.233694        -1.495691
