19
Iteration:  4479charge 0 multiplicity 1
 C        -0.061002        -0.502329         0.287386
 C         1.419845        -0.061728         0.124687
 C         2.082152         0.708081         1.228108
 C         3.294627         1.154801         0.342573
 O         4.485266         1.388118         0.970527
 C         2.571765         2.194264        -0.547049
 C         1.850040         0.888107        -1.148081
 C         3.121752         0.060500        -0.756906
 O         2.456231        -1.052378        -0.280466
 H        -0.478891         0.304131        -0.208388
 H        -0.435327        -1.361832        -0.214712
 H        -0.432597        -0.442888         1.359582
 H         1.479263         1.532047         1.773346
 H         2.511084        -0.039912         1.969068
 H         4.380843         0.857488         1.814109
 H         1.939533         2.989665        -0.147699
 H         3.217055         2.741520        -1.190748
 H         1.345459         0.729264        -2.019459
 H         4.024090        -0.228324        -1.364639
