19
Iteration:  1835
 C        -0.050687        -0.483178         0.227498
 C         1.324921        -0.009927         0.037101
 C         1.954650         0.703283         1.247383
 C         3.277137         1.192946         0.435347
 O         4.491467         1.533659         1.002027
 C         2.712929         2.078684        -0.601528
 C         1.974089         0.881877        -1.132704
 C         3.182743        -0.045097        -0.751595
 O         2.348108        -1.072061        -0.227355
 H         0.035167        -1.525199         0.703448
 H        -0.705775         0.134205         0.936474
 H        -0.546133        -0.535980        -0.735768
 H         1.358850         1.543411         1.425449
 H         2.177596         0.134264         2.186127
 H         4.710340         0.936882         1.723712
 H         2.145567         2.867882        -0.060378
 H         3.410076         2.372136        -1.427830
 H         1.407756         0.858667        -2.026727
 H         4.023774        -0.235926        -1.472318
