19
Iteration:  1175charge 0 multiplicity 1
 C        -0.113711        -0.378531        -0.019886
 C         1.347194        -0.033310         0.135739
 C         2.073530         0.774030         1.331406
 C         3.271200         1.093396         0.436780
 O         4.504079         1.504565         0.926547
 C         2.656922         2.043929        -0.556733
 C         1.978181         0.830383        -1.077936
 C         3.156522        -0.019439        -0.638364
 O         2.336984        -1.071911        -0.201889
 H        -0.645053        -0.747910         0.906069
 H        -0.727453         0.463860        -0.322017
 H        -0.188074        -1.239775        -0.748919
 H         1.415589         1.674502         1.607577
 H         2.343696         0.184627         2.307575
 H         4.967332         0.887370         1.499925
 H         2.106118         2.999880        -0.353633
 H         3.376660         2.427584        -1.312554
 H         1.500650         0.681760        -1.987512
 H         3.914961        -0.225245        -1.331927
