19
Iteration:  2823
 C         0.052149        -0.462080         0.214390
 C         1.364954         0.014479         0.063714
 C         2.150229         0.689552         1.260021
 C         3.323250         1.164987         0.351218
 O         4.523926         1.474540         1.043080
 C         2.514583         2.165040        -0.505881
 C         1.869820         0.828456        -1.178224
 C         3.137180        -0.005860        -0.758487
 O         2.312769        -1.096271        -0.260856
 H         0.242551        -1.272655         0.952322
 H        -0.791645         0.296411         0.493953
 H        -0.421287        -0.901482        -0.705547
 H         1.483497         1.528372         1.477021
 H         2.274534        -0.032915         1.995733
 H         4.358035         1.303393         1.924872
 H         1.861989         2.943043         0.018495
 H         3.269029         2.645528        -1.216482
 H         1.466435         0.790874        -2.179678
 H         3.886262        -0.332963        -1.452588
