19
Iteration:  2612charge 0 multiplicity 1
 C        -0.062800        -0.556120         0.221900
 C         1.364189         0.005422         0.075421
 C         2.101011         0.714243         1.272713
 C         3.268754         1.169074         0.472151
 O         4.504681         1.481116         1.053472
 C         2.620055         2.162036        -0.642997
 C         1.883755         0.911957        -1.176755
 C         3.132734         0.028371        -0.767616
 O         2.365357        -1.057749        -0.240383
 H        -0.015890        -1.383343         0.983464
 H        -0.652128         0.269692         0.429065
 H        -0.538554        -0.855779        -0.737922
 H         1.637052         1.474285         1.871570
 H         2.530609        -0.156607         1.820264
 H         4.835826         0.661644         1.595205
 H         1.925651         2.995644        -0.309444
 H         3.406733         2.470037        -1.378390
 H         1.266976         0.657495        -2.092603
 H         3.948665        -0.362857        -1.459166
