19
Iteration:  4187
 C        -0.016890        -0.536144         0.245582
 C         1.372047         0.023583         0.106573
 C         1.987090         0.793701         1.288574
 C         3.241184         1.167725         0.379718
 O         4.500794         1.442387         0.977675
 C         2.616027         2.135160        -0.656771
 C         1.882895         0.859800        -1.188345
 C         3.177408         0.043277        -0.683045
 O         2.393806        -1.061791        -0.196976
 H         0.059015        -1.431909         0.812878
 H        -0.592251         0.281263         0.660881
 H        -0.401274        -0.879141        -0.794044
 H         1.495001         1.660507         1.628575
 H         2.443168         0.090079         2.123259
 H         4.736741         0.466637         1.339994
 H         2.062851         2.962424        -0.241539
 H         3.294179         2.329581        -1.495232
 H         1.293728         0.605050        -2.057959
 H         4.135144        -0.256410        -1.187104
