19
Iteration:  4775
 C        -0.082916        -0.375487         0.238631
 C         1.408691        -0.096154         0.042925
 C         2.141489         0.664847         1.293834
 C         3.309939         1.136184         0.366119
 O         4.513941         1.503590         1.047899
 C         2.616929         2.081600        -0.606438
 C         1.886713         0.809925        -1.055056
 C         3.110968         0.064898        -0.804006
 O         2.315138        -1.131678        -0.269037
 H        -0.520395         0.497919         0.777970
 H        -0.503506        -0.718299        -0.708518
 H        -0.151058        -1.053880         1.190340
 H         1.594201         1.314806         1.935667
 H         2.347467        -0.237848         1.976359
 H         4.620043         2.551464         1.014327
 H         1.852477         2.754562        -0.178104
 H         3.307033         2.578870        -1.360877
 H         1.475315         0.740301        -2.120495
 H         3.971223        -0.063395        -1.513860
