19
Iteration:  2802charge 0 multiplicity 1
 C        -0.065788        -0.574423         0.260726
 C         1.354425        -0.063018         0.139103
 C         2.039899         0.750579         1.256830
 C         3.344142         1.142879         0.418160
 O         4.522448         1.485020         1.019032
 C         2.612640         2.150058        -0.574503
 C         1.945523         0.929013        -1.098616
 C         3.131788         0.011008        -0.848209
 O         2.365368        -1.082520        -0.318232
 H        -0.287162        -1.097984         1.196779
 H        -0.751956         0.351045         0.041581
 H        -0.411256        -1.227774        -0.568806
 H         1.448584         1.753037         1.597724
 H         2.273082         0.047482         1.984230
 H         4.653034         1.107734         1.935930
 H         1.837653         2.839092        -0.116138
 H         3.313543         2.608029        -1.337749
 H         1.305346         0.983041        -1.975927
 H         4.027339        -0.203057        -1.428975
