19
Iteration:  3432
 C        -0.034349        -0.630883         0.191862
 C         1.349873        -0.001615         0.098420
 C         2.147759         0.698433         1.336608
 C         3.225054         1.189508         0.466373
 O         4.484688         1.329625         0.963696
 C         2.601549         2.202318        -0.698265
 C         1.940215         0.927759        -1.133301
 C         3.122379         0.046568        -0.717878
 O         2.364620        -1.011378        -0.205273
 H         0.244955        -1.527785         0.806359
 H        -0.779353         0.107891         0.641050
 H        -0.519174        -0.890984        -0.814525
 H         1.447865         1.387605         1.923601
 H         2.536531        -0.073795         1.898733
 H         4.502905         2.276832         1.454470
 H         1.819658         3.012649        -0.602815
 H         3.355518         2.452621        -1.473653
 H         1.480693         0.982096        -2.071455
 H         4.050805        -0.253800        -1.232571
