19
Iteration:  2078charge 0 multiplicity 1
 C        -0.006611        -0.417453         0.261530
 C         1.389047        -0.002134         0.053691
 C         2.049700         0.681807         1.194084
 C         3.287626         1.142524         0.383295
 O         4.422608         1.569936         1.111126
 C         2.608629         2.104677        -0.593567
 C         1.993438         0.835645        -1.192572
 C         3.172780        -0.029195        -0.792093
 O         2.328458        -1.104851        -0.235692
 H         0.008517        -1.428725         0.769576
 H        -0.448664         0.335626         0.835030
 H        -0.698198        -0.601032        -0.596886
 H         1.524214         1.422251         1.741258
 H         2.285990        -0.023321         1.967468
 H         4.744560         0.878189         1.858774
 H         1.933746         2.877038        -0.224859
 H         3.205452         2.522261        -1.417301
 H         1.396406         0.964627        -2.133993
 H         4.054186        -0.419529        -1.393038
