19
Iteration:  2391
 C        -0.068983        -0.449972         0.164485
 C         1.390648         0.019395         0.075412
 C         2.128606         0.592971         1.317453
 C         3.243151         1.156360         0.425850
 O         4.472209         1.547522         0.986298
 C         2.611917         2.069220        -0.620639
 C         1.897131         0.863616        -1.125847
 C         3.184408         0.076233        -0.752051
 O         2.327213        -1.061787        -0.252312
 H        -0.246769        -0.830664         1.225691
 H        -0.749992         0.405476         0.127241
 H        -0.269904        -1.309250        -0.519442
 H         1.564989         1.267748         1.936600
 H         2.673896        -0.355835         1.858963
 H         4.509398         1.051954         1.906937
 H         2.071611         2.936796        -0.154298
 H         3.355401         2.518313        -1.313091
 H         1.577094         0.646216        -2.116314
 H         4.036643        -0.273592        -1.330247
