19
Iteration:  3459
 C        -0.049268        -0.533753         0.148008
 C         1.348860        -0.049251         0.104372
 C         2.091486         0.744211         1.224677
 C         3.325573         1.094483         0.467208
 O         4.575401         1.507249         0.918832
 C         2.605475         2.146424        -0.576714
 C         1.846894         0.859448        -1.077564
 C         3.117686         0.039275        -0.707882
 O         2.382555        -1.111499        -0.210361
 H         0.030770        -1.607290         0.317578
 H        -0.691917         0.056609         0.778122
 H        -0.621354        -0.410226        -0.749061
 H         1.453347         1.645355         1.505764
 H         2.165909        -0.034246         2.157462
 H         4.396771         2.109850         1.764287
 H         1.908427         2.847323        -0.114782
 H         3.251525         2.698409        -1.275317
 H         1.373109         0.705804        -2.124860
 H         3.932957        -0.204518        -1.393289
