19
Iteration:  2815
 C        -0.009993        -0.515120         0.225485
 C         1.417694         0.005602         0.020926
 C         2.125584         0.715815         1.203803
 C         3.277247         1.175593         0.409097
 O         4.552626         1.477483         1.042235
 C         2.543439         2.131781        -0.489857
 C         1.897759         0.835618        -1.122236
 C         3.140557        -0.031969        -0.818251
 O         2.309335        -1.064419        -0.279068
 H        -0.040273        -1.150430         1.095740
 H        -0.726138         0.323315         0.508297
 H        -0.238523        -1.060906        -0.664245
 H         1.446698         1.718723         1.603649
 H         2.273665         0.232949         2.180303
 H         4.404173         1.248523         1.957905
 H         2.007458         2.928964         0.051279
 H         3.049129         2.728069        -1.272248
 H         1.335885         0.764088        -2.089115
 H         3.953116        -0.397441        -1.549060
