19
Iteration:   120charge 0 multiplicity 1
 C        -0.049046        -0.395202         0.293726
 C         1.341942         0.013047         0.056142
 C         2.041667         0.738951         1.164650
 C         3.230165         1.163974         0.388705
 O         4.348468         1.431626         1.232410
 C         2.854467         2.159589        -0.739447
 C         2.058606         0.854330        -1.267647
 C         3.147750        -0.048517        -0.779621
 O         2.246891        -1.068439        -0.162959
 H        -0.006488        -1.133776         1.018419
 H        -0.670513         0.405414         0.669501
 H        -0.468945        -0.692827        -0.681794
 H         1.365709         1.456660         1.535389
 H         2.108905        -0.015718         1.878976
 H         4.858481         0.545860         1.456468
 H         2.419326         3.099186        -0.351593
 H         3.691969         2.397773        -1.412733
 H         1.621091         0.514708        -2.173335
 H         3.997948        -0.461788        -1.255263
