19
Iteration:  1316charge 0 multiplicity 1
 C        -0.101475        -0.386429         0.003960
 C         1.327332        -0.053035         0.109676
 C         2.020916         0.681786         1.330624
 C         3.271502         1.165038         0.435037
 O         4.572915         1.504663         0.910100
 C         2.715129         2.080870        -0.584255
 C         1.942358         0.887467        -1.124096
 C         3.085321        -0.001436        -0.646678
 O         2.383806        -1.116612        -0.158699
 H        -0.488445        -1.020803         0.888588
 H        -0.765498         0.443389         0.125768
 H        -0.291087        -0.993800        -0.910160
 H         1.308343         1.473471         1.717712
 H         2.249978         0.090157         2.109802
 H         4.604869         0.968999         1.645316
 H         2.179826         2.919435        -0.159605
 H         3.377978         2.474594        -1.343990
 H         1.391168         0.949642        -2.015603
 H         3.957362        -0.250720        -1.184171
