19
Iteration:  2128charge 0 multiplicity 1
 C        -0.042020        -0.486949         0.109239
 C         1.394853        -0.069746         0.086618
 C         2.018956         0.692258         1.255434
 C         3.299908         1.143182         0.431779
 O         4.557707         1.554826         0.994358
 C         2.643677         2.172519        -0.530755
 C         1.832888         0.885320        -1.084707
 C         3.139751        -0.043879        -0.728335
 O         2.363865        -1.088471        -0.230061
 H        -0.375474        -0.925694         1.081871
 H        -0.713333         0.498357        -0.082628
 H        -0.245151        -1.312246        -0.575990
 H         1.247619         1.634529         1.320471
 H         2.183215         0.108038         2.305644
 H         4.968456         0.852200         1.435554
 H         2.057180         3.037588        -0.156205
 H         3.382996         2.545214        -1.278357
 H         1.365648         0.737957        -2.077833
 H         3.890364        -0.392697        -1.482377
