19
Iteration:  1472charge 0 multiplicity 1
 C        -0.041500        -0.427229         0.072111
 C         1.369615        -0.058811         0.101868
 C         1.954533         0.723638         1.262466
 C         3.314025         1.108875         0.416713
 O         4.561228         1.501370         0.922880
 C         2.590673         2.134782        -0.524493
 C         1.917513         0.862770        -1.102117
 C         3.184787        -0.023899        -0.681538
 O         2.351503        -1.131930        -0.164590
 H        -0.142228        -1.386551         0.568910
 H        -0.550351         0.503259         0.595635
 H        -0.443885        -0.347097        -1.058779
 H         1.555941         1.769082         1.395855
 H         2.020083         0.194619         2.244214
 H         4.540531         0.978296         1.840276
 H         2.162934         3.188151        -0.348814
 H         3.326558         2.528039        -1.300274
 H         1.342103         0.841897        -2.085407
 H         4.070689        -0.274829        -1.334469
