19
Iteration:  1612charge 0 multiplicity 1
 C        -0.039970        -0.432696         0.089579
 C         1.390961        -0.079825         0.115284
 C         2.049321         0.736199         1.317701
 C         3.271200         1.134570         0.426238
 O         4.549613         1.527303         0.976624
 C         2.663560         2.117884        -0.545213
 C         1.871346         0.841839        -1.097334
 C         3.125884        -0.000505        -0.727182
 O         2.331566        -1.092998        -0.232553
 H        -0.455934        -1.278065         0.675811
 H        -0.784315         0.382465         0.235291
 H        -0.262721        -0.749568        -1.009359
 H         1.394115         1.716666         1.579570
 H         2.298256         0.007759         2.089243
 H         4.653911         1.157708         1.881483
 H         2.290385         3.136893        -0.212266
 H         3.319506         2.362622        -1.438857
 H         1.432847         0.636092        -2.117961
 H         3.988900        -0.375634        -1.345982
