19
Iteration:  1469
 C        -0.053804        -0.402137         0.078510
 C         1.362721        -0.079002         0.107976
 C         1.941196         0.707594         1.260642
 C         3.312944         1.127784         0.407055
 O         4.565011         1.494384         0.924196
 C         2.610149         2.125906        -0.546579
 C         1.915764         0.860884        -1.096704
 C         3.187571        -0.007711        -0.682064
 O         2.363873        -1.130125        -0.158298
 H        -0.182612        -1.389736         0.471213
 H        -0.589526         0.380002         0.533609
 H        -0.445512        -0.364853        -0.935440
 H         1.516184         1.838882         1.499041
 H         2.046942         0.117235         2.160284
 H         4.495711         1.034998         1.770656
 H         2.162733         3.105800        -0.344153
 H         3.374132         2.501090        -1.273193
 H         1.304731         0.895072        -2.020516
 H         4.099361        -0.198581        -1.272379
