19
Iteration:  2107charge 0 multiplicity 1
 C        -0.087159        -0.477330         0.192987
 C         1.334431         0.040547         0.083545
 C         2.096491         0.639820         1.286390
 C         3.252377         1.181696         0.411405
 O         4.427131         1.535483         1.044694
 C         2.643353         2.123694        -0.623799
 C         1.999734         0.821593        -1.172783
 C         3.143794         0.064933        -0.706289
 O         2.352628        -1.105829        -0.257999
 H        -0.255343        -1.117922         1.078307
 H        -0.816031         0.352049         0.442676
 H        -0.363209        -1.103089        -0.633686
 H         1.627280         1.541892         1.925919
 H         2.639207        -0.216727         1.813573
 H         4.941501         0.761656         1.367133
 H         2.111269         3.030429        -0.316947
 H         3.408479         2.392872        -1.380256
 H         1.489438         0.784610        -2.164052
 H         4.097853        -0.278333        -1.189927
