19
Iteration:  4322charge 0 multiplicity 1
 C        -0.033826        -0.529526         0.186762
 C         1.335782         0.003580         0.081544
 C         2.137623         0.695512         1.310130
 C         3.251877         1.170765         0.380238
 O         4.522986         1.462734         0.934268
 C         2.663403         2.186064        -0.614615
 C         1.929460         0.816998        -1.109693
 C         3.104190         0.036632        -0.688222
 O         2.316512        -1.066812        -0.241774
 H        -0.264490        -0.788598         1.271628
 H        -0.967955        -0.122727        -0.250080
 H        -0.033264        -1.471762        -0.291980
 H         1.598086         1.548781         1.906436
 H         2.534139        -0.006835         2.070349
 H         4.178598         1.674339         1.881140
 H         2.198346         3.153735        -0.313872
 H         3.480937         2.252157        -1.382256
 H         1.191390         0.867863        -2.034126
 H         3.951008        -0.246202        -1.309207
