19
Iteration:  1054charge 0 multiplicity 1
 C        -0.027796        -0.498443         0.082130
 C         1.351777         0.041153         0.048955
 C         1.996082         0.865074         1.230828
 C         3.274527         1.151639         0.380927
 O         4.557136         1.374022         0.961015
 C         2.632646         2.135623        -0.581291
 C         2.024857         0.812360        -1.141075
 C         3.190557        -0.045406        -0.660969
 O         2.254683        -1.061540        -0.097553
 H        -0.116069        -1.360164         0.771188
 H        -0.672938         0.306711         0.351792
 H        -0.376479        -0.699041        -0.923778
 H         1.335231         1.752612         1.693514
 H         2.284517         0.077723         1.991227
 H         4.401910         1.391603         1.991231
 H         1.975120         3.008289        -0.187903
 H         3.459656         2.513628        -1.285034
 H         1.373303         0.697369        -2.025717
 H         3.996773        -0.480324        -1.318321
