19
Iteration:   625charge 0 multiplicity 1
 C        -0.029467        -0.398192        -0.021625
 C         1.346686         0.137673         0.038564
 C         2.044577         0.673875         1.247954
 C         3.265251         1.178491         0.389931
 O         4.547441         1.292777         0.962808
 C         2.587893         2.193577        -0.617881
 C         1.961543         0.803092        -1.151275
 C         3.154071         0.000226        -0.608822
 O         2.348693        -1.077316        -0.040541
 H        -0.477582        -0.880681         0.953266
 H        -0.861117         0.338567        -0.177070
 H        -0.121928        -1.234282        -0.607709
 H         1.602868         1.611985         1.838721
 H         2.257911         0.014223         2.139182
 H         4.465928         1.494772         1.969659
 H         1.930993         3.065352        -0.336605
 H         3.395901         2.555179        -1.301164
 H         1.396441         0.578177        -2.149104
 H         4.068966        -0.305105        -1.219436
