19
Iteration:  2327
 C        -0.042542        -0.480098         0.233072
 C         1.343291        -0.020122         0.027350
 C         2.139073         0.617187         1.314982
 C         3.260421         1.191009         0.368056
 O         4.434545         1.505142         1.012346
 C         2.667864         2.174636        -0.679656
 C         1.906210         0.941910        -1.139522
 C         3.114205         0.016810        -0.670862
 O         2.361874        -1.064993        -0.214808
 H        -0.100896        -0.921895         1.286355
 H        -0.785462         0.142432        -0.135130
 H        -0.232519        -1.347842        -0.466359
 H         1.382863         1.061651         1.903908
 H         2.563801        -0.183914         1.857320
 H         4.693715         0.611682         1.514028
 H         2.041012         3.003181        -0.414956
 H         3.468641         2.555195        -1.295442
 H         1.462575         0.807950        -2.112908
 H         4.056704        -0.300284        -1.151296
