19
Iteration:  3774
 C        -0.071549        -0.503070         0.190495
 C         1.350936        -0.045904         0.091505
 C         2.127571         0.704756         1.276230
 C         3.330441         1.140645         0.368320
 O         4.484005         1.622520         1.073111
 C         2.617545         2.129794        -0.550004
 C         1.917266         0.794895        -1.118382
 C         3.101263        -0.020279        -0.786344
 O         2.359275        -1.118514        -0.233121
 H        -0.320163        -0.584657         1.257319
 H        -0.733678         0.329184         0.096023
 H        -0.105516        -1.330060        -0.575918
 H         1.418188         1.640284         1.521465
 H         2.148859         0.183880         2.172289
 H         5.174913         1.148787         0.725301
 H         2.023809         2.871242         0.015783
 H         3.158696         2.555678        -1.433538
 H         1.412130         0.730216        -2.130044
 H         3.808677        -0.264239        -1.556261
