19
Iteration:  1556
 C        -0.089824        -0.395042         0.219645
 C         1.404627        -0.038535         0.065483
 C         2.059905         0.762746         1.203586
 C         3.294249         1.087552         0.402290
 O         4.496303         1.491086         1.095804
 C         2.613629         2.141028        -0.560320
 C         1.986934         0.864198        -1.111138
 C         3.160820        -0.023019        -0.773239
 O         2.349946        -1.127268        -0.315825
 H        -0.246040        -0.595027         1.333443
 H        -0.747848         0.333413        -0.201125
 H        -0.324883        -1.412369        -0.247899
 H         1.481358         1.788862         1.488289
 H         2.163265         0.275666         2.139990
 H         4.676548         1.057368         1.880390
 H         1.724565         2.655320        -0.156063
 H         3.170638         2.714413        -1.342460
 H         1.401385         0.746634        -2.081733
 H         3.962194        -0.419176        -1.463820
