19
Iteration:  2615charge 0 multiplicity 1
 C        -0.050902        -0.550239         0.229663
 C         1.375441         0.002527         0.071293
 C         2.097656         0.682925         1.270261
 C         3.283087         1.197967         0.473753
 O         4.484594         1.464720         1.039754
 C         2.635226         2.188867        -0.644063
 C         1.879344         0.905687        -1.180440
 C         3.130132         0.036090        -0.760698
 O         2.358965        -1.058041        -0.237243
 H        -0.018333        -1.370342         0.896165
 H        -0.721666         0.266594         0.552943
 H        -0.513912        -0.859537        -0.701927
 H         1.546382         1.484351         2.002851
 H         2.536917        -0.135764         1.766955
 H         4.765971         0.691793         1.621132
 H         1.986059         2.970437        -0.333977
 H         3.356777         2.332932        -1.446394
 H         1.405773         0.600515        -2.122328
 H         3.917425        -0.289533        -1.404485
