19
Iteration:  3490charge 0 multiplicity 1
 C        -0.050693        -0.404913         0.217682
 C         1.376114        -0.031018         0.094428
 C         2.124133         0.650017         1.252515
 C         3.256556         1.146865         0.437657
 O         4.504730         1.513074         0.945841
 C         2.551672         2.153028        -0.623067
 C         1.921252         0.780131        -1.159018
 C         3.196955         0.023022        -0.720855
 O         2.382611        -1.072564        -0.217090
 H        -0.260584        -1.493625         0.455068
 H        -0.572236         0.048301         1.017524
 H        -0.536086        -0.355737        -0.785606
 H         1.456769         1.384877         1.891314
 H         2.321075        -0.257163         1.994052
 H         4.384178         1.707741         1.829298
 H         1.753022         2.790618        -0.183684
 H         3.183447         2.809931        -1.263868
 H         1.435440         0.529440        -2.097497
 H         4.091514        -0.261955        -1.326395
