19
Iteration:  2966
 C        -0.027744        -0.518481         0.211726
 C         1.364085         0.008585         0.087891
 C         2.095609         0.679785         1.208667
 C         3.339559         1.134081         0.373805
 O         4.496477         1.474741         1.005198
 C         2.509822         2.196088        -0.506078
 C         1.930215         0.849312        -1.105176
 C         3.197540         0.029720        -0.806869
 O         2.329788        -1.067395        -0.220715
 H        -0.305532        -0.854857         1.234852
 H        -0.836496         0.203837        -0.252191
 H        -0.219976        -1.371927        -0.448084
 H         1.697872         1.607677         1.622430
 H         2.448237        -0.052150         1.920424
 H         4.714745         0.812318         1.652846
 H         1.745366         2.817861         0.019386
 H         3.205743         2.704817        -1.211897
 H         1.301589         1.007840        -1.995100
 H         4.080111        -0.184867        -1.475545
