19
Iteration:  2017
 C        -0.013739        -0.584014         0.080606
 C         1.311813         0.081535         0.095877
 C         2.117607         0.717302         1.304173
 C         3.282919         1.179301         0.413446
 O         4.467263         1.456873         0.948162
 C         2.661147         2.203733        -0.597817
 C         1.952910         0.866939        -1.212587
 C         3.135891        -0.012409        -0.687497
 O         2.311838        -1.107488        -0.113497
 H        -0.061120        -1.362213         0.760682
 H        -0.653089         0.133836         0.694801
 H        -0.277154        -0.727741        -0.952313
 H         1.699197         1.584741         1.881796
 H         2.455171        -0.254069         1.695058
 H         4.524245         1.135172         1.933064
 H         1.845710         2.833943        -0.192321
 H         3.299625         2.666192        -1.352094
 H         1.338966         0.850606        -2.065702
 H         3.938508        -0.123293        -1.324926
