19
Iteration:  3034charge 0 multiplicity 1
 C        -0.057999        -0.501614         0.254326
 C         1.401343         0.012460         0.053278
 C         2.075510         0.668194         1.251692
 C         3.325011         1.132358         0.401623
 O         4.545189         1.481300         1.019091
 C         2.526517         2.143181        -0.558976
 C         1.893090         0.895782        -1.161790
 C         3.189005        -0.003846        -0.786054
 O         2.367902        -1.094164        -0.264392
 H         0.046969        -1.424006         0.836477
 H        -0.650779         0.390854         0.680219
 H        -0.563438        -0.644154        -0.658841
 H         1.600278         1.583509         1.711395
 H         2.219805        -0.107511         1.869458
 H         4.317451         1.726396         1.908157
 H         1.789205         2.787367        -0.040783
 H         3.107642         2.705380        -1.324087
 H         1.191631         0.790470        -1.996390
 H         4.069222        -0.408776        -1.328169
