19
Iteration:   942
 C        -0.066435        -0.405366         0.180720
 C         1.348938         0.061922         0.041264
 C         1.927760         0.681295         1.284604
 C         3.267039         1.114349         0.401371
 O         4.486572         1.360408         1.025786
 C         2.739402         2.143978        -0.671312
 C         1.989813         0.804264        -1.150250
 C         3.196178         0.032497        -0.697722
 O         2.346960        -1.079523        -0.163780
 H        -0.243575        -1.043066         1.116604
 H        -0.701295         0.466491         0.248120
 H        -0.254582        -0.962092        -0.685266
 H         1.370365         1.633007         1.681136
 H         2.136122        -0.060120         2.024773
 H         4.301723         2.097471         1.533818
 H         2.252540         3.118614        -0.365953
 H         3.336170         2.533007        -1.543337
 H         1.490906         0.569621        -2.090518
 H         4.104095        -0.296676        -1.185635
