19
Iteration:   278charge 0 multiplicity 1
 C        -0.071749        -0.434699         0.194009
 C         1.314553         0.018072         0.032738
 C         2.065557         0.764544         1.235642
 C         3.289671         1.195163         0.379789
 O         4.366458         1.424282         1.266801
 C         2.801671         2.109096        -0.747435
 C         2.003702         0.886156        -1.145343
 C         3.113068        -0.016401        -0.662205
 O         2.289173        -1.116157        -0.266524
 H        -0.129016        -1.170036         1.039485
 H        -0.708576         0.411127         0.356663
 H        -0.493558        -0.834872        -0.663205
 H         1.484225         1.506831         1.867267
 H         2.511451        -0.004907         1.950094
 H         5.105656         0.971201         0.852486
 H         2.336611         3.078879        -0.639648
 H         3.589110         2.255444        -1.507097
 H         1.527653         0.654098        -2.168885
 H         4.036985        -0.304361        -1.339006
