19
Iteration:  4310charge 0 multiplicity 1
 C        -0.075493        -0.523589         0.157630
 C         1.379913        -0.008542         0.123736
 C         2.186971         0.668624         1.273355
 C         3.278917         1.196685         0.393460
 O         4.478871         1.479802         0.964860
 C         2.558439         2.101551        -0.649314
 C         1.916850         0.923133        -1.091085
 C         3.156493        -0.046680        -0.730921
 O         2.315795        -1.065571        -0.202162
 H        -0.258414        -0.729305         1.262448
 H        -0.623373         0.407964        -0.069243
 H        -0.232323        -1.354928        -0.456474
 H         1.614216         1.512706         1.768521
 H         2.557677        -0.110843         1.983056
 H         4.603437         1.633480         1.937359
 H         1.926059         2.980342        -0.377548
 H         3.320466         2.531397        -1.335557
 H         1.497190         0.855540        -2.194404
 H         4.011659        -0.335886        -1.258912
