19
Iteration:  3319charge 0 multiplicity 1
 C        -0.003665        -0.472851         0.162798
 C         1.402672        -0.056639         0.111916
 C         2.111364         0.686853         1.257361
 C         3.310293         1.166412         0.390743
 O         4.470688         1.612461         0.951140
 C         2.554140         2.133496        -0.475065
 C         1.923885         0.808726        -1.026156
 C         3.189453        -0.028254        -0.780106
 O         2.329444        -1.143730        -0.287529
 H        -0.299130        -1.063692         1.028304
 H        -0.601281         0.595594         0.128660
 H        -0.531689        -1.039159        -0.620679
 H         1.488674         1.554490         1.456008
 H         2.328280         0.172698         2.185785
 H         4.688482         0.894869         1.561438
 H         1.867824         2.933178        -0.120104
 H         3.280599         2.646147        -1.171748
 H         1.216462         1.020216        -1.978660
 H         3.866214        -0.313895        -1.598652
