19
Iteration:  1707
 C        -0.067175        -0.451726         0.141841
 C         1.345725        -0.013907         0.084637
 C         2.118149         0.765400         1.261448
 C         3.348264         1.093396         0.343617
 O         4.474560         1.522731         1.080569
 C         2.621938         2.085299        -0.541184
 C         1.910701         0.894404        -1.146523
 C         3.194490        -0.024418        -0.817742
 O         2.292901        -1.113580        -0.195471
 H        -0.183791        -1.170118         1.013260
 H        -0.807264         0.296463         0.256104
 H        -0.199645        -1.112760        -0.721989
 H         1.669199         1.664092         1.459081
 H         2.193469         0.124073         2.197840
 H         4.574493         1.176609         1.945117
 H         2.141866         2.862177        -0.001505
 H         3.132215         2.584428        -1.333033
 H         1.455483         1.079406        -2.222557
 H         4.038258        -0.477338        -1.479421
