19
Iteration:   340
 C        -0.135671        -0.379323        -0.041418
 C         1.368500         0.055199         0.116499
 C         2.020671         0.676450         1.350698
 C         3.263394         1.139209         0.423456
 O         4.532016         1.453853         1.007130
 C         2.615841         2.092475        -0.642870
 C         2.025865         0.785180        -1.158184
 C         3.192048         0.027503        -0.613088
 O         2.275256        -1.008264        -0.138011
 H        -0.272644        -1.413329         0.392492
 H        -0.842405         0.341853         0.480778
 H        -0.266014        -0.615899        -1.113512
 H         1.702165         1.540395         1.780019
 H         2.408041        -0.015491         2.048841
 H         5.117702         0.678963         1.059603
 H         1.921206         2.873129        -0.316218
 H         3.477245         2.405003        -1.252136
 H         1.500371         0.480108        -2.099682
 H         4.083822        -0.400990        -0.912470
