19
Iteration:  2444
 C        -0.029744        -0.559010         0.162674
 C         1.376825         0.047530         0.093419
 C         2.057166         0.824704         1.215173
 C         3.294431         1.095596         0.421324
 O         4.548445         1.544031         1.003137
 C         2.538800         2.099610        -0.513189
 C         1.878322         0.870768        -1.097540
 C         3.164548        -0.014059        -0.746685
 O         2.369269        -1.133095        -0.248551
 H        -0.053113        -1.553336         0.502412
 H        -0.696762         0.202196         0.652775
 H        -0.517115        -0.425221        -0.782966
 H         1.630650         1.743085         1.501090
 H         2.055687         0.169715         2.136405
 H         4.966404         0.649242         1.386322
 H         1.914607         2.964116        -0.179764
 H         3.269865         2.623631        -1.184268
 H         1.352740         0.810209        -2.030978
 H         3.991127        -0.383839        -1.307910
