19
Iteration:  3376
 C        -0.030496        -0.517538         0.259865
 C         1.381939        -0.038300         0.120729
 C         2.069209         0.674823         1.303366
 C         3.252282         1.167134         0.371057
 O         4.542609         1.435343         0.986538
 C         2.590695         2.226779        -0.544955
 C         1.886730         0.820398        -1.170777
 C         3.128032         0.069154        -0.765867
 O         2.390360        -1.117231        -0.312643
 H        -0.329779        -0.637809         1.291091
 H        -0.703801         0.331800        -0.091158
 H        -0.005080        -1.440967        -0.338524
 H         1.327542         1.418184         1.705020
 H         2.417989         0.027004         2.025293
 H         4.253564         1.797043         1.844761
 H         1.949744         3.055944        -0.147194
 H         3.309948         2.622965        -1.286267
 H         1.444207         0.822358        -2.182732
 H         4.030920        -0.167901        -1.302013
