19
Iteration:  2829
 C         0.012021        -0.462255         0.224031
 C         1.379130         0.031090         0.079623
 C         2.124665         0.663182         1.257582
 C         3.336046         1.125026         0.351583
 O         4.490193         1.475010         1.019965
 C         2.523623         2.177222        -0.582481
 C         1.912493         0.885894        -1.169425
 C         3.119253         0.034387        -0.735338
 O         2.330326        -1.115499        -0.241805
 H         0.044390        -1.376643         0.851172
 H        -0.586122         0.251883         0.669275
 H        -0.367578        -0.838149        -0.726634
 H         1.545768         1.563156         1.753631
 H         2.405427        -0.318729         1.912147
 H         4.361831         1.330989         1.987040
 H         1.814816         2.789472        -0.088900
 H         3.268595         2.592266        -1.201038
 H         1.446082         0.784557        -2.171731
 H         4.011751        -0.228095        -1.360024
