19
Iteration:   765
 C        -0.080659        -0.432681         0.008163
 C         1.331639         0.051238         0.074811
 C         2.042098         0.754814         1.282664
 C         3.256797         1.160744         0.392039
 O         4.564294         1.345034         0.948371
 C         2.673010         2.195992        -0.579131
 C         1.970429         0.833269        -1.154994
 C         3.161230        -0.056848        -0.631637
 O         2.281862        -1.063489        -0.094107
 H        -0.278025        -1.127724         0.963593
 H        -0.875093         0.343408        -0.306488
 H         0.124947        -1.272853        -0.774568
 H         1.547713         1.604913         1.709033
 H         2.246144         0.143809         2.159658
 H         4.494761         1.776237         1.760315
 H         2.017323         3.015525        -0.143122
 H         3.409498         2.485696        -1.368304
 H         1.392318         0.703040        -2.107994
 H         4.086257        -0.503171        -1.074100
