19
Iteration:  4218
 C        -0.063588        -0.617787         0.210362
 C         1.340990        -0.005403         0.147088
 C         2.058411         0.765651         1.224809
 C         3.323870         1.101727         0.345460
 O         4.528871         1.638500         1.089508
 C         2.723219         2.080442        -0.622821
 C         1.875333         0.902291        -1.188491
 C         3.102629        -0.026419        -0.755158
 O         2.267742        -1.057050        -0.173287
 H         0.028677        -1.659758         0.518266
 H        -0.572301        -0.155210         1.064361
 H        -0.538168        -0.550219        -0.945908
 H         1.554559         1.709440         1.384976
 H         2.423839         0.163214         2.096615
 H         5.067360         0.911823         1.109768
 H         2.242175         2.976687        -0.160822
 H         3.323510         2.550295        -1.428607
 H         1.384220         0.690377        -2.075693
 H         3.963081        -0.581631        -1.362991
