19
Iteration:  4084
 C        -0.064010        -0.458257         0.255429
 C         1.367282        -0.026522         0.048825
 C         2.130299         0.648116         1.288689
 C         3.282637         1.152066         0.370160
 O         4.483324         1.519460         0.990010
 C         2.586972         2.167861        -0.615592
 C         1.898483         0.802325        -1.150987
 C         3.209879         0.040242        -0.756412
 O         2.348198        -1.073905        -0.222295
 H        -0.332799        -0.307197         1.388473
 H        -0.849966         0.031390        -0.455318
 H        -0.161825        -1.537665        -0.022808
 H         1.555274         1.451148         1.854632
 H         2.194584        -0.027663         2.086255
 H         4.451775         1.116377         1.840934
 H         2.077813         2.930785         0.026890
 H         3.206264         2.610324        -1.422782
 H         1.548058         0.692876        -2.230255
 H         4.029769        -0.241705        -1.448510
