19
Iteration:  2626
 C        -0.014473        -0.497296         0.259578
 C         1.354340        -0.003374         0.072377
 C         2.098198         0.591329         1.268487
 C         3.225948         1.250669         0.345840
 O         4.461921         1.436037         1.014314
 C         2.669808         2.184527        -0.660264
 C         1.933556         0.844455        -1.120125
 C         3.119718         0.092673        -0.703513
 O         2.337372        -1.058064        -0.241387
 H         0.046714        -1.402784         0.810381
 H        -0.668573         0.064550         0.900084
 H        -0.384444        -0.801524        -0.701581
 H         1.358276         1.258011         1.971508
 H         2.399327        -0.172459         1.923210
 H         4.430933         0.847953         1.702768
 H         2.310912         3.153939        -0.417433
 H         3.351637         2.423297        -1.485551
 H         1.675956         0.803517        -2.167327
 H         4.001079        -0.017362        -1.266629
