19
Iteration:   951charge 0 multiplicity 1
 C        -0.058739        -0.393669         0.204253
 C         1.339863        -0.044442         0.066715
 C         1.992561         0.754000         1.182211
 C         3.265152         1.087169         0.411051
 O         4.490550         1.423337         1.051260
 C         2.718290         2.171821        -0.631486
 C         1.977279         0.881509        -1.159033
 C         3.205534        -0.015595        -0.667760
 O         2.315901        -1.157130        -0.219814
 H        -0.304418        -0.844658         1.136837
 H        -0.664908         0.552184         0.236232
 H        -0.408448        -1.137655        -0.538135
 H         1.362747         1.696999         1.643830
 H         2.115972        -0.009512         1.989021
 H         4.359664         2.136269         1.602557
 H         2.125126         3.049016        -0.362176
 H         3.531542         2.327842        -1.383663
 H         1.599350         0.752900        -2.139273
 H         4.061869        -0.327760        -1.172275
