19
Iteration:  3392charge 0 multiplicity 1
 C        -0.019918        -0.553071         0.264189
 C         1.408628        -0.051901         0.042214
 C         2.043612         0.766267         1.197037
 C         3.298980         1.142979         0.439124
 O         4.531504         1.388588         1.018440
 C         2.524143         2.104996        -0.565908
 C         1.885303         0.953366        -1.093010
 C         3.154123         0.030175        -0.786298
 O         2.420628        -1.078592        -0.297270
 H        -0.232353        -0.941928         1.287541
 H        -0.702393         0.234202         0.071658
 H        -0.416841        -1.443224        -0.225359
 H         1.591033         1.822054         1.385668
 H         2.044277         0.224973         2.256126
 H         4.552312         1.997442         1.688790
 H         1.945247         2.861227        -0.055742
 H         3.179116         2.653625        -1.249557
 H         1.249133         0.841720        -1.971798
 H         3.985172        -0.177773        -1.513019
