19
Iteration:  1630
 C        -0.086640        -0.470122         0.092734
 C         1.347154         0.026554         0.070168
 C         2.077916         0.762666         1.200909
 C         3.329459         1.125216         0.368527
 O         4.540860         1.554079         1.062589
 C         2.615593         2.090952        -0.573877
 C         1.949307         0.874168        -1.069183
 C         3.143887        -0.050325        -0.715731
 O         2.320525        -1.148778        -0.196414
 H        -0.047117        -1.455583         0.653178
 H        -0.637059         0.296780         0.593007
 H        -0.623772        -0.593886        -0.823950
 H         1.547987         1.591927         1.337095
 H         2.096283         0.229849         2.133641
 H         4.837390         0.857427         1.713411
 H         1.970799         2.764037        -0.075413
 H         3.255789         2.594027        -1.273438
 H         1.288660         0.947661        -1.976905
 H         3.971415        -0.271131        -1.432803
