19
Iteration:  3865charge 0 multiplicity 1
 C        -0.020914        -0.597788         0.176082
 C         1.375803         0.028261         0.092511
 C         2.092308         0.688839         1.304667
 C         3.278059         1.206773         0.382581
 O         4.525619         1.336893         0.968370
 C         2.589380         2.181756        -0.672450
 C         1.873986         0.873013        -1.138456
 C         3.114661         0.046731        -0.697241
 O         2.379821        -1.034553        -0.161027
 H        -0.093142        -1.409298         0.961626
 H        -0.738955         0.176156         0.551183
 H        -0.135674        -0.917577        -0.801915
 H         1.464545         1.545876         1.681950
 H         2.305502        -0.028925         2.094103
 H         4.587002         2.279640         1.224376
 H         1.884504         2.953643        -0.320264
 H         3.392069         2.548706        -1.326705
 H         1.165529         0.778839        -1.945166
 H         4.004253        -0.147565        -1.221064
