19
Iteration:  2384charge 0 multiplicity 1
 C        -0.039891        -0.446197         0.228857
 C         1.396181        -0.028939         0.061146
 C         2.098212         0.594820         1.285909
 C         3.299368         1.131383         0.391128
 O         4.483943         1.573994         1.020532
 C         2.593372         2.178818        -0.602800
 C         1.933763         0.862440        -1.105253
 C         3.197585         0.037892        -0.770161
 O         2.292594        -1.104755        -0.273505
 H        -0.471381        -0.743268         1.232253
 H        -0.679293         0.406309         0.045408
 H        -0.089135        -1.306290        -0.495505
 H         1.481415         1.362088         1.818470
 H         2.319887        -0.227832         1.876829
 H         4.509357         1.103999         1.866158
 H         1.907346         2.875983        -0.176233
 H         3.391448         2.467949        -1.246268
 H         1.405300         0.690489        -2.085887
 H         4.017843        -0.338939        -1.469812
