19
Iteration:  3421charge 0 multiplicity 1
 C        -0.022664        -0.636794         0.247092
 C         1.380489         0.027075         0.080860
 C         2.085743         0.669673         1.268297
 C         3.234888         1.185053         0.407564
 O         4.473521         1.319553         1.001158
 C         2.597585         2.225738        -0.686002
 C         1.912238         0.949076        -1.206093
 C         3.114852         0.088386        -0.706860
 O         2.389189        -1.065299        -0.192634
 H        -0.104505        -1.389917         1.063692
 H        -0.754136         0.157817         0.625754
 H        -0.268811        -1.144630        -0.737298
 H         1.662998         1.577723         1.848932
 H         2.378530        -0.061015         1.947130
 H         4.712860         2.168661         1.463818
 H         2.028669         3.079739        -0.209960
 H         3.449184         2.662658        -1.234976
 H         1.400939         0.694909        -2.081543
 H         4.009984        -0.163880        -1.295708
