19
Iteration:  2709
 C        -0.074794        -0.427579         0.171785
 C         1.404419        -0.032488         0.115063
 C         2.093440         0.582839         1.331843
 C         3.233088         1.118830         0.485430
 O         4.471719         1.524832         0.930230
 C         2.643527         2.193537        -0.617446
 C         1.888940         0.851114        -1.120387
 C         3.106031         0.067148        -0.764507
 O         2.416802        -1.062570        -0.218247
 H        -0.181611        -1.232374         1.007909
 H        -0.698282         0.483679         0.232176
 H        -0.413284        -0.924691        -0.834490
 H         1.505341         1.270181         1.749280
 H         2.348533        -0.436755         1.893553
 H         4.903723         0.849337         1.553636
 H         1.892431         2.990058        -0.329486
 H         3.477451         2.467799        -1.291521
 H         1.264803         0.719330        -2.066157
 H         4.107942        -0.061594        -1.339186
