19
Iteration:    40charge 0 multiplicity 1
 C        -0.114181        -0.265806        -0.039603
 C         1.280139         0.116310         0.144661
 C         2.003814         0.692198         1.265104
 C         3.276109         1.118789         0.443467
 O         4.601521         1.342107         0.980976
 C         2.649223         2.011617        -0.642695
 C         2.028229         0.750246        -1.129552
 C         3.183092        -0.025348        -0.585301
 O         2.288816        -1.027991        -0.084360
 H        -0.561915        -1.028879         0.648878
 H        -0.618734         0.649638        -0.385299
 H        -0.151002        -1.022405        -0.950563
 H         1.561841         1.656210         1.581935
 H         2.171992        -0.087780         2.038059
 H         4.568221         2.325221         1.346767
 H         1.980203         2.815550        -0.216295
 H         3.446646         2.495314        -1.280955
 H         1.593653         0.480283        -2.108915
 H         4.047011        -0.338119        -1.292483
