19
Iteration:  1392charge 0 multiplicity 1
 C        -0.130396        -0.414150         0.274696
 C         1.354448        -0.055250         0.059311
 C         2.011860         0.717086         1.230526
 C         3.313032         1.083905         0.457987
 O         4.442223         1.566912         1.105860
 C         2.765124         2.058639        -0.644125
 C         1.952313         0.907582        -1.197368
 C         3.210919         0.024600        -0.809380
 O         2.318257        -1.143417        -0.280773
 H        -0.266965        -0.931748         1.255618
 H        -0.703286         0.435213         0.319855
 H        -0.571762        -1.093211        -0.394725
 H         1.306786         1.615326         1.552303
 H         2.260958         0.137553         2.079119
 H         4.863499         0.856648         1.763063
 H         2.200465         2.845291        -0.211473
 H         3.466511         2.376190        -1.395472
 H         1.385624         0.976969        -2.088755
 H         4.121194        -0.108658        -1.356874
