19
Iteration:   575
 C        -0.056986        -0.411486         0.176025
 C         1.369296         0.042613         0.016873
 C         2.007073         0.764967         1.196163
 C         3.268377         1.163291         0.467766
 O         4.478911         1.371974         1.099494
 C         2.786557         2.078550        -0.686760
 C         1.958881         0.867947        -1.140984
 C         3.102566        -0.004299        -0.678746
 O         2.296094        -1.094131        -0.218915
 H        -0.248476        -0.964813         1.033582
 H        -0.790619         0.344775         0.249274
 H        -0.316000        -1.240825        -0.596965
 H         1.396457         1.326569         1.782141
 H         2.363280        -0.048839         1.791780
 H         4.465862         2.134292         1.759333
 H         2.260881         2.944883        -0.314538
 H         3.529249         2.323413        -1.461126
 H         1.650971         0.678836        -2.139249
 H         4.015814        -0.211708        -1.208485
