19
Iteration:  4396
 C        -0.066586        -0.469443         0.220511
 C         1.390192        -0.019794         0.060278
 C         2.108892         0.653067         1.343444
 C         3.288303         1.162831         0.444554
 O         4.532085         1.357782         1.007247
 C         2.530762         2.188823        -0.661676
 C         1.852267         0.853083        -1.180601
 C         3.213527         0.074863        -0.846993
 O         2.377320        -1.043859        -0.187389
 H        -0.557847        -0.141802         1.209033
 H        -0.841619        -0.261611        -0.545406
 H        -0.192859        -1.527408         0.396860
 H         1.539563         1.431387         1.767938
 H         2.397430        -0.109477         2.080355
 H         4.555186         2.016663         1.632686
 H         1.928084         2.998958        -0.245512
 H         3.374831         2.412092        -1.351750
 H         1.255065         0.743154        -2.191563
 H         4.147141        -0.155139        -1.240751
