19
Iteration:  2194
 C        -0.076883        -0.457501         0.244345
 C         1.354289        -0.007209         0.056017
 C         2.106421         0.667738         1.236310
 C         3.284355         1.156978         0.429782
 O         4.451938         1.531261         1.031250
 C         2.616531         2.092419        -0.609782
 C         1.920941         0.863944        -1.116787
 C         3.171158         0.006676        -0.737392
 O         2.394509        -1.086690        -0.312214
 H        -0.072792        -1.108626         1.148684
 H        -0.790499         0.521685         0.197547
 H        -0.450794        -1.105874        -0.572221
 H         1.488929         1.543527         1.720028
 H         2.326972         0.087454         2.197415
 H         4.606760         1.044699         1.945113
 H         2.085553         2.970648        -0.192756
 H         3.376975         2.440200        -1.353337
 H         1.353039         0.791787        -2.067962
 H         3.971736        -0.417986        -1.375640
