19
Iteration:  1906
 C        -0.087648        -0.440707         0.124932
 C         1.409390        -0.102122         0.112127
 C         2.073023         0.753970         1.315870
 C         3.289388         1.156154         0.414964
 O         4.456636         1.533723         0.950455
 C         2.668532         2.065756        -0.548539
 C         1.895940         0.867465        -1.126172
 C         3.154188         0.028533        -0.736559
 O         2.389127        -1.118793        -0.257041
 H        -0.246818        -0.893706         1.048194
 H        -0.699288         0.436290         0.174366
 H        -0.514880        -1.037837        -0.686043
 H         1.286485         1.532451         1.749787
 H         2.344857         0.017295         2.157152
 H         4.450721         1.167562         1.838988
 H         2.138780         2.873650        -0.090546
 H         3.407627         2.278400        -1.280657
 H         1.441386         0.966584        -2.137016
 H         3.988038        -0.174241        -1.365636
