19
Iteration:  3303
 C        -0.066366        -0.442003         0.225140
 C         1.405246        -0.051828         0.091244
 C         2.081622         0.685563         1.270564
 C         3.254422         1.113228         0.422756
 O         4.481700         1.576570         0.996033
 C         2.574253         2.125369        -0.585173
 C         1.886494         0.876822        -1.144628
 C         3.124741         0.019792        -0.741929
 O         2.399173        -1.127177        -0.275236
 H        -0.156903        -1.333547         0.941036
 H        -0.526284         0.389319         0.641436
 H        -0.222777        -0.913767        -0.777532
 H         1.438083         1.528923         1.708503
 H         2.338052        -0.048082         2.084501
 H         5.038190         0.904400         1.237340
 H         2.092435         2.930673        -0.030563
 H         3.185043         2.641694        -1.326039
 H         1.452536         0.753343        -2.062370
 H         4.098085        -0.208434        -1.220186
