19
Iteration:  3499charge 0 multiplicity 1
 C        -0.041576        -0.404989         0.235718
 C         1.400236         0.007766         0.026272
 C         2.148777         0.581575         1.298984
 C         3.230366         1.159943         0.387951
 O         4.513863         1.503070         0.988781
 C         2.491968         2.111991        -0.668966
 C         1.971717         0.814968        -1.156752
 C         3.092615         0.050541        -0.646332
 O         2.381592        -1.088293        -0.228019
 H         0.109950        -1.490240         0.615389
 H        -0.594964         0.185978         0.987388
 H        -0.537690        -0.271274        -0.810707
 H         1.626349         1.452283         1.835057
 H         2.579398        -0.211654         1.883565
 H         4.369113         1.625388         1.873637
 H         1.686329         2.858467        -0.410865
 H         3.280637         2.460870        -1.383568
 H         1.534106         0.630549        -2.059675
 H         4.050278         0.014972        -1.240418
