19
Iteration:  3763
 C        -0.049735        -0.498267         0.183951
 C         1.406241        -0.038746         0.115504
 C         2.079600         0.768831         1.213884
 C         3.293086         1.174457         0.429242
 O         4.510171         1.550122         1.066038
 C         2.585212         2.088870        -0.574910
 C         1.844970         0.828467        -1.099051
 C         3.151924        -0.024181        -0.768899
 O         2.348873        -1.094342        -0.217921
 H        -0.186448        -1.182455         1.035731
 H        -0.732895         0.266026        -0.100992
 H        -0.306033        -1.316556        -0.585406
 H         1.528893         1.776593         1.459968
 H         2.398269         0.244718         2.060956
 H         5.238139         1.252412         0.505200
 H         2.020110         2.918422        -0.089790
 H         3.369170         2.591556        -1.199523
 H         1.201562         0.634039        -2.002410
 H         3.945824        -0.313790        -1.452770
