19
Iteration:  2968charge 0 multiplicity 1
 C        -0.014820        -0.511037         0.206848
 C         1.360020         0.010654         0.067200
 C         2.120305         0.667043         1.210692
 C         3.346899         1.144879         0.384264
 O         4.492669         1.477404         0.997273
 C         2.508632         2.183333        -0.504318
 C         1.922109         0.857687        -1.112120
 C         3.186918         0.050658        -0.791391
 O         2.323532        -1.073918        -0.213231
 H        -0.370583        -0.881221         1.230666
 H        -0.882986         0.240516        -0.212770
 H        -0.156277        -1.407142        -0.415312
 H         1.699413         1.591418         1.706516
 H         2.411832        -0.027590         1.809975
 H         4.707714         0.778936         1.758886
 H         1.756779         2.795494         0.001788
 H         3.195326         2.645600        -1.231533
 H         1.337242         0.944169        -2.043960
 H         4.042966        -0.215871        -1.496893
