19
Iteration:  2238charge 0 multiplicity 1
 C        -0.081088        -0.481850         0.264108
 C         1.389017         0.064054         0.044048
 C         2.123788         0.619993         1.240315
 C         3.251077         1.171482         0.379485
 O         4.454980         1.613481         1.108636
 C         2.616099         2.133671        -0.641042
 C         1.972324         0.822123        -1.159259
 C         3.169824        -0.058888        -0.754135
 O         2.302933        -1.080094        -0.277311
 H         0.057417        -1.499354         0.709819
 H        -0.631969         0.301167         0.909857
 H        -0.784192        -0.511837        -0.590127
 H         1.625686         1.280433         1.906655
 H         2.402890        -0.177965         1.945963
 H         4.745603         0.736159         1.624761
 H         1.988223         3.016319        -0.467715
 H         3.397082         2.387044        -1.394057
 H         1.554721         0.775063        -2.165973
 H         4.180362        -0.324206        -1.077854
