19
Iteration:  3989charge 0 multiplicity 1
 C        -0.076264        -0.489648         0.228255
 C         1.412324         0.032495         0.083420
 C         2.076530         0.759559         1.214118
 C         3.314642         1.139014         0.375484
 O         4.487523         1.631089         0.979250
 C         2.564330         2.068365        -0.550502
 C         1.914097         0.852094        -1.107165
 C         3.197807        -0.083676        -0.749252
 O         2.351251        -1.151311        -0.221561
 H        -0.206019        -1.453211         0.653721
 H        -0.721790         0.236789         0.842188
 H        -0.383358        -0.407349        -0.869591
 H         1.574847         1.651585         1.627409
 H         2.170283         0.027028         2.183728
 H         4.687807         0.966214         1.639867
 H         1.908460         2.826707        -0.107365
 H         3.096191         2.503772        -1.400508
 H         1.409963         0.900667        -2.097584
 H         4.163659        -0.509222        -1.341606
