19
Iteration:  2879charge 0 multiplicity 1
 C        -0.025199        -0.462534         0.186895
 C         1.361877        -0.013373         0.075872
 C         2.091793         0.663714         1.268350
 C         3.313008         1.131616         0.388991
 O         4.496346         1.567724         0.976461
 C         2.591273         2.146496        -0.539369
 C         1.878542         0.822760        -1.067389
 C         3.187693        -0.045838        -0.742104
 O         2.340345        -1.072705        -0.296742
 H        -0.097445        -1.514734         0.536330
 H        -0.528940         0.177194         1.066234
 H        -0.413663        -0.569300        -0.853534
 H         1.447321         1.544168         1.516726
 H         2.248853         0.071316         2.090154
 H         4.722234         1.217591         1.939080
 H         1.938854         2.828099         0.089758
 H         3.182355         2.541693        -1.427440
 H         1.319250         1.000280        -2.003864
 H         3.967654        -0.373862        -1.501754
