19
Iteration:  1206charge 0 multiplicity 1
 C        -0.069703        -0.464788         0.058820
 C         1.337768         0.036340         0.069660
 C         2.046933         0.739118         1.236626
 C         3.328803         1.147352         0.388353
 O         4.554238         1.490521         1.031401
 C         2.684202         2.146881        -0.570164
 C         1.978628         0.851675        -1.153348
 C         3.063746        -0.106046        -0.698611
 O         2.291113        -1.026666        -0.113490
 H        -0.293696        -1.184442         1.028907
 H        -0.672654         0.425878        -0.021031
 H        -0.118416        -1.137257        -0.813735
 H         1.331155         1.481933         1.726858
 H         2.404977         0.009534         1.904972
 H         4.726763         0.832035         1.785191
 H         1.943520         2.885165        -0.203393
 H         3.404832         2.561020        -1.328092
 H         1.496567         0.802921        -2.139297
 H         3.766897        -0.542943        -1.410792
