19
Iteration:  1119charge 0 multiplicity 1
 C        -0.062762        -0.347500         0.255171
 C         1.395548        -0.008971         0.081508
 C         1.993902         0.807567         1.219511
 C         3.324207         1.098679         0.350578
 O         4.421514         1.575756         1.163359
 C         2.722408         2.098509        -0.572113
 C         2.000463         0.778077        -1.276393
 C         3.218741        -0.119367        -0.786008
 O         2.279080        -1.150868        -0.267543
 H        -0.243700        -1.124428         1.120751
 H        -0.659345         0.498507         0.477398
 H        -0.571320        -0.632606        -0.620986
 H         1.387851         1.822294         1.501362
 H         2.226202         0.190668         2.138216
 H         4.588016         0.916514         1.779444
 H         1.970057         2.724985        -0.083291
 H         3.505147         2.505479        -1.256442
 H         1.283644         0.730801        -2.118957
 H         4.154263        -0.361012        -1.353158
