19
Iteration:  2784
 C        -0.071631        -0.543511         0.240344
 C         1.361204        -0.014258         0.061412
 C         2.078614         0.586469         1.280766
 C         3.225874         1.185272         0.424444
 O         4.479799         1.497878         0.983606
 C         2.692609         2.188375        -0.603764
 C         1.869320         0.924616        -1.138238
 C         3.093915         0.085649        -0.723195
 O         2.396203        -1.068001        -0.275516
 H        -0.279493        -0.878195         1.248048
 H        -0.796833         0.199183        -0.018115
 H        -0.093893        -1.433488        -0.332713
 H         1.588066         1.523783         1.744230
 H         2.514625        -0.050305         2.170593
 H         4.707712         0.692704         1.562968
 H         2.377298         3.090901        -0.121225
 H         3.473184         2.216172        -1.342409
 H         1.429536         0.637164        -2.142008
 H         4.018764        -0.064459        -1.416749
