19
Iteration:  2738charge 0 multiplicity 1
 C        -0.110544        -0.498992         0.150969
 C         1.394558        -0.053395         0.073015
 C         2.131690         0.782154         1.196819
 C         3.348278         1.126854         0.407819
 O         4.510170         1.536333         1.035578
 C         2.554160         2.178359        -0.459120
 C         1.904425         0.785425        -1.075704
 C         3.158441         0.020107        -0.778840
 O         2.337292        -1.102994        -0.278457
 H        -0.373877        -0.790017         1.121879
 H        -0.708779         0.422594         0.003092
 H        -0.240157        -1.346406        -0.442772
 H         1.433958         1.631285         1.690847
 H         2.268617         0.112804         2.055638
 H         5.173496         0.712859         1.056933
 H         1.729258         2.619769         0.041073
 H         3.132715         2.785388        -1.161750
 H         1.380447         0.787003        -2.029505
 H         4.034080        -0.197600        -1.441622
