19
Iteration:   448charge 0 multiplicity 1
 C        -0.131618        -0.456261         0.105639
 C         1.358985         0.077286         0.076329
 C         2.011736         0.844416         1.266071
 C         3.301590         1.128537         0.426651
 O         4.527711         1.335238         1.041821
 C         2.719172         2.151494        -0.573652
 C         1.954575         0.786068        -1.113640
 C         3.138250        -0.023551        -0.765471
 O         2.394911        -1.094932        -0.216905
 H        -0.403133        -0.937665         1.044523
 H        -0.946599         0.276921        -0.152642
 H        -0.268421        -1.109761        -0.751627
 H         1.277085         1.814714         1.400652
 H         2.126434         0.265700         2.209620
 H         4.289818         1.670824         1.997650
 H         2.103233         2.946723        -0.112428
 H         3.510973         2.443278        -1.283981
 H         1.347568         0.603545        -2.020695
 H         3.937188        -0.168203        -1.404851
