19
Iteration:  2785
 C        -0.077843        -0.542943         0.236884
 C         1.360044        -0.016440         0.072464
 C         2.076552         0.595908         1.286899
 C         3.228864         1.178994         0.413347
 O         4.487227         1.497945         0.988297
 C         2.690775         2.189701        -0.601026
 C         1.869200         0.923789        -1.144231
 C         3.094554         0.084973        -0.721696
 O         2.399426        -1.073146        -0.281707
 H        -0.293756        -0.879130         1.269609
 H        -0.786214         0.197506         0.021752
 H        -0.087019        -1.449298        -0.350682
 H         1.600116         1.460304         1.709363
 H         2.480714        -0.029498         2.206317
 H         4.668445         0.742023         1.556228
 H         2.365935         3.110002        -0.135898
 H         3.479875         2.247004        -1.330625
 H         1.441990         0.668208        -2.158515
 H         3.992273        -0.069373        -1.421532
