19
Iteration:   275charge 0 multiplicity 1
 C        -0.076674        -0.429106         0.199484
 C         1.316770         0.038356         0.032591
 C         2.089736         0.759148         1.246306
 C         3.278945         1.191698         0.386995
 O         4.368960         1.420914         1.277150
 C         2.797803         2.134994        -0.751516
 C         1.980904         0.885580        -1.188813
 C         3.133826        -0.046431        -0.667820
 O         2.283671        -1.118150        -0.266673
 H        -0.115419        -1.149352         1.035710
 H        -0.713951         0.497416         0.404052
 H        -0.470059        -1.026666        -0.657085
 H         1.463048         1.391267         1.779743
 H         2.488534         0.000543         1.894504
 H         5.196800         1.065780         0.965704
 H         2.347021         3.126382        -0.604349
 H         3.589393         2.221090        -1.512665
 H         1.400135         0.674328        -2.165079
 H         4.065026        -0.298927        -1.197181
