19
Iteration:  4882
 C        -0.070508        -0.518489         0.250946
 C         1.367454         0.019023         0.123018
 C         2.142853         0.646834         1.306889
 C         3.284063         1.102878         0.388218
 O         4.562168         1.466031         0.909952
 C         2.534622         2.181156        -0.563314
 C         1.941958         0.897518        -1.159637
 C         3.140044         0.082686        -0.773994
 O         2.369786        -1.106717        -0.236205
 H        -0.678113         0.393315         0.248477
 H        -0.442582        -1.125892        -0.573047
 H        -0.352277        -1.031297         1.288810
 H         1.596359         1.598578         1.743467
 H         2.264625        -0.210825         2.056825
 H         4.700150         1.320994         1.938083
 H         1.567728         2.713649        -0.189955
 H         3.167120         2.749160        -1.293686
 H         1.247696         0.782255        -2.054484
 H         3.900747        -0.124425        -1.628478
