19
Iteration:  1960charge 0 multiplicity 1
 C        -0.094843        -0.449897         0.260019
 C         1.374533        -0.000948         0.093659
 C         2.108625         0.597638         1.231917
 C         3.255883         1.171294         0.408963
 O         4.363214         1.523130         1.042030
 C         2.673977         2.173428        -0.608041
 C         1.956483         0.859107        -1.172359
 C         3.202885        -0.008367        -0.710812
 O         2.387282        -1.057298        -0.252298
 H        -0.388457        -0.705142         1.242372
 H        -0.682067         0.341464        -0.161609
 H        -0.394878        -1.339770        -0.324656
 H         1.527282         1.318246         1.630342
 H         2.252293        -0.127573         2.090085
 H         4.894980         0.703576         1.152014
 H         2.128892         3.083517        -0.339100
 H         3.470211         2.493178        -1.272581
 H         1.406388         0.766022        -2.141001
 H         4.003979        -0.332407        -1.361355
