19
Iteration:   449charge 0 multiplicity 1
 C        -0.122924        -0.458987         0.092393
 C         1.356108         0.078473         0.081935
 C         2.004150         0.845455         1.266062
 C         3.306165         1.137203         0.428999
 O         4.535606         1.334468         1.040188
 C         2.720046         2.155975        -0.575391
 C         1.952568         0.793372        -1.105690
 C         3.139778        -0.027247        -0.764190
 O         2.388080        -1.098478        -0.214515
 H        -0.421378        -0.970073         1.048558
 H        -0.958440         0.287071        -0.137056
 H        -0.245242        -1.083127        -0.744639
 H         1.307868         1.786469         1.398466
 H         2.113543         0.265631         2.204272
 H         4.280966         1.677663         1.994582
 H         2.099412         2.919295        -0.094682
 H         3.483869         2.451555        -1.303985
 H         1.316407         0.539355        -2.043982
 H         3.942096        -0.192954        -1.433430
