19
Iteration:  4483charge 0 multiplicity 1
 C        -0.050752        -0.492767         0.296146
 C         1.394748        -0.048072         0.146231
 C         2.084692         0.741212         1.224404
 C         3.287965         1.140407         0.350811
 O         4.488532         1.387974         0.983824
 C         2.570894         2.191302        -0.553260
 C         1.859787         0.867535        -1.128008
 C         3.097182         0.078230        -0.804084
 O         2.461986        -1.066058        -0.282497
 H        -0.481418         0.395925        -0.296844
 H        -0.317837        -1.493955        -0.165246
 H        -0.330862        -0.494301         1.340796
 H         1.391386         1.396087         1.682334
 H         2.471232         0.019236         1.982611
 H         4.425109         0.807893         1.793636
 H         1.911012         2.897478         0.018347
 H         3.304288         2.703646        -1.279431
 H         1.452648         0.808850        -2.195702
 H         3.994808        -0.171046        -1.307001
