19
Iteration:  2075
 C        -0.028239        -0.415452         0.250883
 C         1.378145        -0.029569         0.070504
 C         2.066065         0.716013         1.166700
 C         3.280275         1.147240         0.386682
 O         4.438016         1.564430         1.110874
 C         2.617605         2.118054        -0.542957
 C         1.978065         0.828960        -1.199965
 C         3.166471        -0.050738        -0.788066
 O         2.348232        -1.126753        -0.257079
 H         0.096360        -1.392719         0.709744
 H        -0.500008         0.325356         0.842898
 H        -0.716028        -0.535124        -0.541221
 H         1.399026         1.452018         1.803127
 H         2.303308         0.168860         2.008771
 H         4.707150         1.021216         1.844078
 H         1.948382         2.917289        -0.252160
 H         3.166641         2.453671        -1.439513
 H         1.419784         0.968024        -2.165446
 H         4.054745        -0.399919        -1.411255
