19
Iteration:  3765
 C        -0.061581        -0.495140         0.174371
 C         1.397466        -0.046891         0.111916
 C         2.093151         0.766468         1.219533
 C         3.290208         1.172641         0.430433
 O         4.511997         1.565997         1.067200
 C         2.595849         2.093277        -0.566677
 C         1.848551         0.817958        -1.108405
 C         3.152286        -0.026602        -0.774710
 O         2.348484        -1.096119        -0.220947
 H        -0.156859        -1.151245         1.138796
 H        -0.751559         0.330203        -0.102334
 H        -0.245480        -1.317363        -0.538972
 H         1.578272         1.679085         1.406587
 H         2.333502         0.262792         2.083106
 H         5.192126         1.234805         0.565921
 H         2.044787         2.891410        -0.023439
 H         3.341235         2.607280        -1.224293
 H         1.209996         0.609104        -2.002394
 H         3.852560        -0.287736        -1.484439
