19
Iteration:  2597
 C        -0.041186        -0.500014         0.170771
 C         1.356229         0.004259         0.114338
 C         2.086328         0.689332         1.273620
 C         3.337374         1.118353         0.311690
 O         4.517654         1.547571         1.066962
 C         2.573206         2.112810        -0.526395
 C         1.912253         0.862601        -1.124354
 C         3.119840        -0.013740        -0.805471
 O         2.347865        -1.064199        -0.247232
 H        -0.227695        -1.159579         1.049098
 H        -0.888594         0.316050         0.356927
 H        -0.211223        -1.159001        -0.685276
 H         1.597483         1.635207         1.448013
 H         2.127423         0.175650         2.269356
 H         4.965640         0.665085         1.308434
 H         1.920689         2.792452         0.064818
 H         3.267728         2.583194        -1.283783
 H         1.401037         1.049454        -2.052546
 H         4.031110        -0.157722        -1.374396
