19
Iteration:  4051charge 0 multiplicity 1
 C        -0.003540        -0.556186         0.231803
 C         1.383474        -0.048594         0.081545
 C         2.051378         0.781557         1.277326
 C         3.290890         1.214967         0.376103
 O         4.477389         1.421470         1.019407
 C         2.590641         2.160593        -0.605691
 C         1.852945         0.872126        -1.136422
 C         3.175010         0.061424        -0.785905
 O         2.378846        -1.085084        -0.170330
 H        -0.486360        -0.632199         1.290022
 H        -0.795516         0.101570        -0.263606
 H         0.010043        -1.552520        -0.180819
 H         1.459228         1.743841         1.393171
 H         2.165683         0.192661         2.141009
 H         4.896545         0.591472         1.114860
 H         2.114896         3.046207        -0.112583
 H         3.223929         2.561585        -1.412107
 H         1.570796         0.644536        -2.186501
 H         4.010397        -0.152846        -1.441293
