19
Iteration:  2804charge 0 multiplicity 1
 C        -0.065664        -0.573277         0.260283
 C         1.368394        -0.056982         0.116609
 C         2.036421         0.756089         1.235852
 C         3.342056         1.148433         0.432531
 O         4.526761         1.480212         1.026321
 C         2.599069         2.146298        -0.567561
 C         1.952944         0.927138        -1.089751
 C         3.130322        -0.000876        -0.858761
 O         2.354747        -1.076472        -0.312907
 H        -0.300527        -1.111382         1.151790
 H        -0.712262         0.349727         0.116312
 H        -0.364164        -1.202737        -0.547704
 H         1.466127         1.806428         1.608002
 H         2.332883         0.051267         2.044691
 H         4.626602         1.173227         1.873072
 H         1.856904         2.768729        -0.063341
 H         3.248895         2.593885        -1.342421
 H         1.263418         0.935975        -1.966000
 H         4.079591        -0.232851        -1.456552
