19
Iteration:   615
 C        -0.097535        -0.436506         0.010276
 C         1.323262         0.032756         0.052767
 C         2.052276         0.808296         1.231036
 C         3.250891         1.167485         0.426757
 O         4.569810         1.291684         0.966127
 C         2.633648         2.139233        -0.578635
 C         1.979287         0.802969        -1.161501
 C         3.141835         0.008237        -0.640220
 O         2.354659        -1.052370        -0.065503
 H        -0.263232        -0.759142         1.094604
 H        -0.706147         0.397634        -0.386828
 H        -0.084814        -1.182839        -0.723950
 H         1.458265         1.804476         1.533121
 H         2.188216        -0.030523         1.980840
 H         4.565276         1.511958         1.912262
 H         1.835728         2.728009        -0.101003
 H         3.320726         2.746986        -1.181924
 H         1.418187         0.734309        -2.168957
 H         4.035153        -0.301593        -1.263144
