19
Iteration:  1930
 C        -0.034083        -0.441083         0.216395
 C         1.382069         0.050869         0.045305
 C         2.120063         0.624343         1.251409
 C         3.359868         1.136905         0.425781
 O         4.499039         1.600811         1.104985
 C         2.568051         2.179021        -0.610034
 C         1.940410         0.834036        -1.198011
 C         3.145402        -0.071827        -0.717602
 O         2.302738        -1.128988        -0.284074
 H        -0.224823        -0.657839         1.260686
 H        -0.861893         0.258139        -0.101940
 H        -0.252077        -1.277872        -0.444281
 H         1.366906         1.626213         1.616380
 H         2.172150        -0.060569         2.080702
 H         4.810106         0.879261         1.606151
 H         1.822595         2.687707        -0.012390
 H         3.189649         2.695074        -1.327434
 H         1.522433         0.703956        -2.150665
 H         3.809090        -0.390691        -1.433926
