19
Iteration:  2410
 C        -0.100712        -0.497048         0.139765
 C         1.325419         0.004870         0.070389
 C         2.144596         0.641437         1.330622
 C         3.242454         1.148318         0.421180
 O         4.498675         1.505905         0.944011
 C         2.588829         2.187127        -0.598968
 C         1.926960         0.867583        -1.146873
 C         3.120139         0.044552        -0.703581
 O         2.431509        -1.106671        -0.196786
 H        -0.450507        -1.196724         0.823871
 H        -0.701876         0.427953         0.490161
 H        -0.187789        -0.891433        -0.844624
 H         1.695625         1.455738         1.897789
 H         2.406425        -0.272484         1.863996
 H         4.648185         0.958173         1.762350
 H         1.913947         3.057621        -0.400134
 H         3.488011         2.352425        -1.263615
 H         1.270109         0.901657        -2.017557
 H         4.023250        -0.185114        -1.232462
