19
Iteration:  3343charge 0 multiplicity 1
 C        -0.056019        -0.448439         0.170053
 C         1.355387         0.011206         0.094646
 C         2.183255         0.569140         1.342811
 C         3.310835         1.116276         0.391349
 O         4.552591         1.594527         0.980795
 C         2.526322         2.130840        -0.554974
 C         1.853692         0.871109        -1.176425
 C         3.118212         0.027982        -0.772564
 O         2.371441        -1.111740        -0.240856
 H        -0.382019        -0.908317         1.065111
 H        -0.864124         0.245818        -0.278617
 H        -0.271632        -1.349302        -0.400332
 H         1.671666         1.450239         1.985069
 H         2.497053        -0.217370         1.948328
 H         4.442292         1.351765         2.005187
 H         1.935186         3.039991        -0.231524
 H         3.261693         2.554335        -1.281194
 H         1.328390         0.793118        -2.199366
 H         4.060221        -0.263985        -1.207048
