19
Iteration:   313charge 0 multiplicity 1
 C        -0.083852        -0.395618         0.008875
 C         1.360185         0.066434         0.004010
 C         1.927500         0.835288         1.230780
 C         3.293423         1.147168         0.397238
 O         4.545823         1.420417         1.072222
 C         2.623107         2.123514        -0.560789
 C         1.994788         0.879067        -1.176055
 C         3.112847        -0.107977        -0.622155
 O         2.368270        -1.150249        -0.099436
 H        -0.133963        -1.345836         0.536036
 H        -0.591334         0.253828         0.682334
 H        -0.513303        -0.586052        -0.999553
 H         1.614103         1.904113         1.635471
 H         2.272072         0.129156         2.049260
 H         5.147590         0.770995         0.761330
 H         1.877799         2.750774        -0.048453
 H         3.330381         2.599719        -1.248829
 H         1.472122         0.960710        -2.131128
 H         4.119910        -0.580660        -0.988882
