19
Iteration:   248charge 0 multiplicity 1
 C        -0.054462        -0.371339         0.240956
 C         1.310123         0.071955        -0.024845
 C         2.066357         0.757357         1.170402
 C         3.326146         1.053642         0.388591
 O         4.366743         1.429727         1.269121
 C         2.718672         2.058162        -0.610701
 C         2.082748         0.859112        -1.201473
 C         3.151516        -0.084922        -0.770859
 O         2.269281        -1.051211        -0.216099
 H        -0.188310        -0.747729         1.277986
 H        -0.670873         0.511844         0.077779
 H        -0.283645        -1.332371        -0.360996
 H         1.488267         1.646484         1.629021
 H         2.232530        -0.053218         1.935890
 H         5.030369         1.969134         0.858588
 H         1.955862         2.788365        -0.280933
 H         3.413721         2.464354        -1.375444
 H         1.710730         0.732835        -2.172216
 H         3.874712        -0.412991        -1.545266
