19
Iteration:  1106charge 0 multiplicity 1
 C        -0.069792        -0.358301         0.235430
 C         1.380633        -0.046045         0.047036
 C         2.048751         0.767024         1.176023
 C         3.288593         1.155224         0.461863
 O         4.444125         1.544945         1.146068
 C         2.720103         2.095674        -0.691535
 C         2.025349         0.869770        -1.132682
 C         3.099957        -0.100916        -0.773085
 O         2.305515        -1.177718        -0.260402
 H        -0.038141        -1.302589         0.990519
 H        -0.577922         0.464325         0.735030
 H        -0.516342        -0.721015        -0.656701
 H         1.339217         1.685162         1.283354
 H         2.131805         0.325646         2.125010
 H         4.498845         1.038042         2.061062
 H         2.252946         3.008503        -0.370847
 H         3.455846         2.485541        -1.419506
 H         1.545137         0.818175        -2.181806
 H         3.949545        -0.514205        -1.425962
