19
Iteration:  1459
 C        -0.131697        -0.394014         0.088299
 C         1.373646        -0.035645         0.092347
 C         1.996177         0.697457         1.269408
 C         3.251235         1.178416         0.403587
 O         4.548230         1.464665         0.944751
 C         2.688411         2.092232        -0.636387
 C         1.935242         0.842989        -1.080461
 C         3.148886         0.041894        -0.686871
 O         2.412358        -1.094115        -0.148434
 H        -0.383982        -1.373752         0.431513
 H        -0.797659         0.205779         0.707872
 H        -0.481351        -0.465601        -0.997981
 H         1.232331         1.471615         1.812225
 H         2.261327        -0.058637         1.996023
 H         4.664261         1.176947         1.803446
 H         2.041565         2.801818        -0.105801
 H         3.486584         2.351301        -1.380859
 H         1.327563         0.831840        -2.017845
 H         4.102739        -0.193826        -1.201969
