19
Iteration:  3238charge 0 multiplicity 1
 C        -0.019183        -0.562303         0.215628
 C         1.368913        -0.032692         0.086342
 C         2.044880         0.798796         1.256250
 C         3.290924         1.125688         0.443546
 O         4.519279         1.508201         0.992110
 C         2.606333         2.141190        -0.563881
 C         1.871327         0.852362        -1.098474
 C         3.147601         0.001058        -0.836939
 O         2.377605        -1.063065        -0.256974
 H         0.091711        -1.521988         0.906535
 H        -0.741907        -0.063154         0.905826
 H        -0.496423        -0.770374        -0.867894
 H         1.400449         1.594397         1.456945
 H         2.063051         0.358262         2.248405
 H         4.927397         0.966093         1.747737
 H         2.136586         3.041546        -0.125542
 H         3.268315         2.419652        -1.379228
 H         1.280947         0.975037        -1.946045
 H         3.951802        -0.253488        -1.555159
