19
Iteration:  4132
 C        -0.045669        -0.427010         0.217626
 C         1.389845        -0.034613         0.129312
 C         2.135388         0.665988         1.213227
 C         3.337833         1.117242         0.392453
 O         4.518180         1.622539         0.991085
 C         2.564704         2.056688        -0.533818
 C         1.928302         0.854539        -1.079568
 C         3.149665        -0.003545        -0.791993
 O         2.275862        -1.142047        -0.276072
 H        -0.415859        -0.461230         1.186189
 H        -0.594149         0.233943        -0.398939
 H        -0.258217        -1.387543        -0.319712
 H         1.710066         1.484285         1.712870
 H         2.334899         0.041553         2.174493
 H         4.313385         1.752448         1.956041
 H         1.891262         2.877846        -0.290430
 H         3.349563         2.379719        -1.233985
 H         1.471849         0.631124        -2.008742
 H         3.932828        -0.237612        -1.600273
