19
Iteration:     5
 C        -0.107409        -0.338954         0.053895
 C         1.345970         0.048814        -0.005139
 C         2.026671         0.796854         1.247083
 C         3.299237         1.126973         0.425789
 O         4.489808         1.462365         1.050651
 C         2.733992         2.087764        -0.698076
 C         2.014462         0.780013        -1.147021
 C         3.172132        -0.123241        -0.639032
 O         2.260022        -1.088354        -0.109999
 H        -0.322825        -0.860306         1.048493
 H        -0.759626         0.582861         0.223799
 H        -0.439758        -0.829959        -0.840735
 H         1.571738         1.754719         1.616218
 H         2.203488         0.210360         2.189323
 H         4.508005         0.815540         1.834819
 H         2.236059         2.949169        -0.219804
 H         3.602280         2.398004        -1.288116
 H         1.521723         0.772443        -2.143061
 H         4.018588        -0.562817        -1.134158
