19
Iteration:  1364
 C        -0.053194        -0.398733         0.140384
 C         1.363696         0.053586         0.029892
 C         2.100225         0.687961         1.287673
 C         3.235306         1.183214         0.466850
 O         4.456243         1.458652         1.059233
 C         2.630991         2.156967        -0.665515
 C         1.991247         0.867897        -1.156854
 C         3.200779         0.011281        -0.752338
 O         2.275796        -1.155143        -0.164727
 H        -0.251688        -0.612137         1.200839
 H        -0.940501         0.352788         0.018820
 H        -0.200279        -1.405526        -0.457893
 H         1.645639         1.356575         1.935370
 H         2.451141        -0.214494         1.910431
 H         4.863930         0.556934         1.367158
 H         1.975582         3.072043        -0.407261
 H         3.458151         2.516716        -1.358202
 H         1.481751         0.707479        -2.157478
 H         4.129048        -0.173217        -1.374195
