19
Iteration:   836charge 0 multiplicity 1
 C        -0.074526        -0.317425         0.238837
 C         1.381296         0.071122         0.018849
 C         2.078678         0.722690         1.239642
 C         3.308702         1.152683         0.444119
 O         4.457162         1.446278         1.185076
 C         2.626262         2.078389        -0.712204
 C         1.962408         0.783565        -1.260943
 C         3.216450        -0.080063        -0.737589
 O         2.307123        -1.126759        -0.243635
 H        -0.145903        -0.931402         1.257838
 H        -0.631180         0.606658         0.331920
 H        -0.459635        -0.966464        -0.588809
 H         1.521247         1.595668         1.668679
 H         2.236018        -0.045560         2.056499
 H         4.186558         2.034303         1.839342
 H         2.001291         2.829500        -0.251103
 H         3.421988         2.447146        -1.352638
 H         1.513495         0.610823        -2.268457
 H         4.096965        -0.475802        -1.338130
