19
Iteration:  4657
 C        -0.025517        -0.665563         0.278426
 C         1.364543         0.026805         0.082340
 C         2.087013         0.753746         1.276910
 C         3.344558         1.163522         0.368927
 O         4.548435         1.373260         1.002782
 C         2.639634         2.192545        -0.612270
 C         1.860383         0.922076        -1.115604
 C         3.103992         0.004872        -0.786598
 O         2.292687        -1.004304        -0.263927
 H        -0.667557         0.004757         0.913544
 H        -0.442087        -1.046924        -0.669863
 H         0.072920        -1.381367         1.025441
 H         1.579580         1.679610         1.601302
 H         2.232138         0.024846         2.185483
 H         4.200117         1.769619         1.833060
 H         2.157531         3.107616        -0.220810
 H         3.370652         2.535183        -1.423804
 H         1.738987         0.802360        -2.240041
 H         3.764424        -0.421126        -1.548536
