19
Iteration:  2696
 C        -0.055727        -0.471687         0.157814
 C         1.352511         0.001909         0.125173
 C         2.129122         0.611785         1.341373
 C         3.202767         1.197734         0.406218
 O         4.468286         1.499199         0.932919
 C         2.604757         2.080930        -0.589585
 C         1.961909         0.876129        -1.152754
 C         3.143420         0.068013        -0.728610
 O         2.364591        -1.065207        -0.253328
 H        -0.245987        -1.319002         0.833169
 H        -0.647277         0.305199         0.720880
 H        -0.417333        -0.749473        -0.840595
 H         1.738269         1.227406         2.109757
 H         2.679791        -0.140984         2.012741
 H         4.463902         1.090199         1.790751
 H         2.095327         3.018513        -0.317705
 H         3.500104         2.419285        -1.145714
 H         1.404024         0.727347        -2.098281
 H         3.993888        -0.140771        -1.472846
