19
Iteration:  2403
 C        -0.081522        -0.456178         0.145984
 C         1.308367         0.010359         0.074082
 C         2.185101         0.615301         1.308559
 C         3.242272         1.179167         0.438072
 O         4.464351         1.502841         0.961384
 C         2.604698         2.125588        -0.588656
 C         1.934890         0.834867        -1.184242
 C         3.084500         0.016663        -0.670263
 O         2.423340        -1.038606        -0.232316
 H        -0.189762        -1.166669         1.081801
 H        -0.769477         0.351150         0.136230
 H        -0.378498        -1.029334        -0.798373
 H         1.811572         1.328158         2.039362
 H         2.535286        -0.352936         2.015736
 H         4.659048         1.104572         1.735726
 H         2.001441         3.018928        -0.334575
 H         3.388542         2.260970        -1.360228
 H         1.303389         0.892704        -2.062991
 H         4.053458         0.015382        -1.215817
