19
Iteration:   332charge 0 multiplicity 1
 C        -0.105189        -0.391184        -0.020440
 C         1.358440         0.068500         0.049735
 C         2.061407         0.707364         1.290840
 C         3.308954         1.142877         0.442686
 O         4.511987         1.427427         1.000291
 C         2.580547         2.152735        -0.606803
 C         2.078430         0.768436        -1.132161
 C         3.195744         0.016173        -0.612041
 O         2.235102        -1.032760        -0.072900
 H        -0.214614        -1.437827         0.416181
 H        -0.945837         0.194964         0.402739
 H        -0.270273        -0.421452        -1.049063
 H         1.428880         1.543619         1.629882
 H         2.272878        -0.056760         2.108390
 H         5.049498         0.589095         0.823305
 H         1.845372         2.864891        -0.213196
 H         3.363358         2.577484        -1.265849
 H         1.623153         0.381822        -2.176862
 H         4.110875        -0.366548        -1.255407
