19
Iteration:  2782charge 0 multiplicity 1
 C        -0.055932        -0.543044         0.247218
 C         1.361458        -0.011288         0.043501
 C         2.083773         0.575544         1.272816
 C         3.222270         1.194195         0.444274
 O         4.465849         1.494662         0.977194
 C         2.694513         2.180481        -0.607590
 C         1.869951         0.923791        -1.125709
 C         3.098374         0.086712        -0.730264
 O         2.388642        -1.057430        -0.263871
 H        -0.248822        -0.874738         1.231929
 H        -0.828623         0.209197        -0.106845
 H        -0.124021        -1.432176        -0.333079
 H         1.569944         1.599452         1.799413
 H         2.548530        -0.077642         2.052129
 H         4.775523         0.646739         1.543554
 H         2.377459         3.082927        -0.104957
 H         3.475465         2.186929        -1.377441
 H         1.410464         0.604685        -2.086337
 H         4.032547        -0.054534        -1.378328
