19
Iteration:  4222
 C        -0.040467        -0.608014         0.185949
 C         1.328787        -0.008686         0.161033
 C         2.059408         0.769719         1.222636
 C         3.317079         1.094078         0.320051
 O         4.525836         1.659744         1.096054
 C         2.697992         2.080874        -0.642231
 C         1.862675         0.883923        -1.170203
 C         3.148982        -0.044731        -0.766608
 O         2.252722        -1.055207        -0.183803
 H         0.001627        -1.642724         0.554500
 H        -0.619618        -0.150141         0.993078
 H        -0.612672        -0.482441        -0.695263
 H         1.627688         1.684548         1.715269
 H         2.349818         0.082520         2.097251
 H         5.179017         0.839540         1.155180
 H         2.310274         2.965706        -0.184863
 H         3.442395         2.487126        -1.347486
 H         1.356235         0.768771        -2.211311
 H         3.966793        -0.467112        -1.210149
