19
Iteration:  3881
 C         0.017727        -0.608621         0.165047
 C         1.332342         0.002128         0.194901
 C         2.025456         0.742356         1.337454
 C         3.184166         1.211764         0.429390
 O         4.518286         1.337447         0.917278
 C         2.604587         2.164753        -0.659147
 C         1.932574         0.886243        -1.136384
 C         3.140805         0.065653        -0.714888
 O         2.360450        -1.009098        -0.173532
 H         0.139167        -1.602614         0.522844
 H        -0.834682        -0.165720         0.649487
 H        -0.552174        -0.856971        -0.823972
 H         1.518599         1.511465         1.839734
 H         2.574437        -0.018647         1.972455
 H         4.882951         2.149887         0.994708
 H         2.209872         3.133509        -0.343455
 H         3.334574         2.292509        -1.479351
 H         1.608199         0.831573        -2.211380
 H         4.160581        -0.345577        -1.223418
