19
Iteration:  1012charge 0 multiplicity 1
 C        -0.148869        -0.345195         0.095485
 C         1.405089        -0.041176         0.109852
 C         2.033389         0.726732         1.280805
 C         3.232276         1.215931         0.409088
 O         4.463983         1.392077         1.001613
 C         2.707063         2.109788        -0.648708
 C         1.954045         0.782598        -1.133763
 C         3.191120        -0.034751        -0.745054
 O         2.363489        -1.067201        -0.146977
 H        -0.371499        -0.722938         1.106826
 H        -0.722784         0.615535        -0.037077
 H        -0.400833        -1.218231        -0.632171
 H         1.539970         1.407576         1.872962
 H         2.467783        -0.107262         1.890355
 H         4.406001         1.646330         1.922852
 H         2.191719         3.041764        -0.274983
 H         3.395093         2.554268        -1.397529
 H         1.550073         0.655715        -2.146584
 H         4.173699        -0.288255        -1.204053
