19
Iteration:  3993charge 0 multiplicity 1
 C        -0.058437        -0.513951         0.231061
 C         1.384765         0.045106         0.096862
 C         2.070022         0.765622         1.218434
 C         3.335354         1.146632         0.407738
 O         4.464649         1.620214         0.966592
 C         2.573325         2.070227        -0.580053
 C         1.918856         0.852690        -1.080674
 C         3.204469        -0.099527        -0.754112
 O         2.337388        -1.136288        -0.222199
 H        -0.097902        -1.568322         0.626468
 H        -0.635006         0.323398         0.574235
 H        -0.401239        -0.464014        -0.807659
 H         1.626610         1.643365         1.601008
 H         2.158208         0.094626         1.987310
 H         4.837649         0.880509         1.600538
 H         1.935325         2.796701        -0.067538
 H         3.104899         2.562828        -1.412972
 H         1.400918         0.954640        -2.020698
 H         4.057177        -0.410703        -1.274400
