19
Iteration:  1645charge 0 multiplicity 1
 C        -0.105159        -0.462213         0.212382
 C         1.350446         0.029327         0.062756
 C         2.024053         0.728177         1.266164
 C         3.321579         1.135556         0.412428
 O         4.453593         1.512372         1.069050
 C         2.654334         2.157368        -0.592777
 C         1.994641         0.815872        -1.234357
 C         3.176887        -0.042109        -0.774201
 O         2.324049        -1.056381        -0.189998
 H        -0.069235        -1.510966         0.605297
 H        -0.770345         0.115431         0.917916
 H        -0.415065        -0.554277        -0.897785
 H         1.585640         1.596625         1.939207
 H         2.327682        -0.008048         2.007729
 H         4.769260         0.718251         1.403727
 H         2.004945         2.957246        -0.099710
 H         3.380849         2.571259        -1.359628
 H         1.643584         0.672430        -2.286748
 H         4.054455        -0.435645        -1.334533
