19
Iteration:  2979
 C        -0.027426        -0.503040         0.181597
 C         1.372909         0.023177         0.021445
 C         2.206283         0.621481         1.262323
 C         3.280657         1.176578         0.392159
 O         4.530926         1.492814         0.998699
 C         2.534163         2.108150        -0.536824
 C         1.873020         0.899836        -1.158457
 C         3.103745         0.086510        -0.714196
 O         2.327699        -1.077475        -0.218372
 H        -0.206931        -0.794963         1.277644
 H        -0.848465         0.311439        -0.133250
 H        -0.025751        -1.381992        -0.470544
 H         1.688476         1.288640         1.979073
 H         2.423376        -0.173560         1.757670
 H         4.514968         0.989180         1.913275
 H         1.959308         2.915404        -0.067245
 H         3.128014         2.626472        -1.307115
 H         1.598870         0.658337        -2.174582
 H         3.869422        -0.275710        -1.452152
