19
Iteration:   795
 C        -0.156818        -0.319599         0.136846
 C         1.309773         0.020245         0.035384
 C         2.031673         0.690444         1.329863
 C         3.248231         1.152171         0.421006
 O         4.554654         1.404478         1.035237
 C         2.670329         2.133990        -0.665909
 C         1.977839         0.805314        -1.189093
 C         3.172209        -0.015822        -0.643513
 O         2.398897        -1.104989        -0.210666
 H        -0.310178        -0.609495         1.078539
 H        -0.934638         0.328945        -0.265739
 H        -0.335902        -1.231744        -0.554331
 H         1.442413         1.600307         1.753544
 H         2.356035        -0.159175         2.021276
 H         4.456400         1.837686         1.967155
 H         2.014897         2.979159        -0.404829
 H         3.413053         2.386231        -1.423880
 H         1.411026         0.564519        -2.136911
 H         4.155197        -0.338292        -1.134766
