19
Iteration:  4053
 C         0.001926        -0.542063         0.247366
 C         1.375590        -0.055091         0.082986
 C         2.061588         0.797755         1.257597
 C         3.284424         1.211812         0.383228
 O         4.478461         1.427104         1.021060
 C         2.574182         2.159783        -0.596615
 C         1.861015         0.865533        -1.142577
 C         3.172910         0.053837        -0.787717
 O         2.381118        -1.091144        -0.172885
 H        -0.498943        -0.588893         1.182702
 H        -0.761803         0.070477        -0.243230
 H         0.047332        -1.564848        -0.204167
 H         1.460205         1.731086         1.393495
 H         2.122020         0.157998         2.227453
 H         4.938352         0.519918         1.173207
 H         2.110598         3.032682        -0.103377
 H         3.204549         2.554611        -1.404312
 H         1.549199         0.726902        -2.207695
 H         4.054230        -0.156535        -1.523244
