19
Iteration:   620
 C        -0.058490        -0.406151        -0.005518
 C         1.333283         0.102679         0.026917
 C         2.055878         0.729509         1.237223
 C         3.240515         1.185238         0.392605
 O         4.562083         1.288948         0.969084
 C         2.618522         2.177078        -0.590383
 C         1.962205         0.779032        -1.160518
 C         3.147209         0.012265        -0.611487
 O         2.353231        -1.070150        -0.046032
 H        -0.382873        -0.803900         0.927230
 H        -0.792514         0.383996        -0.207812
 H        -0.062704        -1.369668        -0.678004
 H         1.635442         1.587892         1.631577
 H         2.177616         0.061659         2.066200
 H         4.570971         1.485614         1.920886
 H         1.845754         2.883139        -0.253872
 H         3.383672         2.676285        -1.193596
 H         1.397673         0.665372        -2.030050
 H         3.955447        -0.276844        -1.228184
