19
Iteration:   955
 C        -0.087641        -0.397788         0.207082
 C         1.366775        -0.069450         0.059297
 C         2.027194         0.770177         1.158122
 C         3.276164         1.128146         0.432080
 O         4.491276         1.433608         1.059237
 C         2.697247         2.144324        -0.629471
 C         1.980058         0.896487        -1.161719
 C         3.175724        -0.058217        -0.649316
 O         2.305707        -1.160146        -0.241316
 H        -0.243680        -0.831192         1.293599
 H        -0.657929         0.501289         0.089985
 H        -0.524312        -1.054970        -0.500677
 H         1.463757         1.604226         1.515853
 H         2.177989         0.132462         2.009735
 H         4.358474         2.229595         1.704143
 H         2.059448         2.998279        -0.257739
 H         3.629255         2.260634        -1.242687
 H         1.604857         0.874523        -2.236619
 H         4.113586        -0.311269        -1.268576
