19
Iteration:  1631
 C        -0.083727        -0.469298         0.101810
 C         1.347652         0.032521         0.068037
 C         2.078945         0.761705         1.216119
 C         3.320910         1.126827         0.356646
 O         4.537867         1.555457         1.065615
 C         2.618106         2.086260        -0.571700
 C         1.961562         0.873649        -1.075930
 C         3.147891        -0.047752        -0.720461
 O         2.319291        -1.149377        -0.193651
 H        -0.063733        -1.481120         0.654317
 H        -0.679639         0.273346         0.601138
 H        -0.663571        -0.591485        -0.834030
 H         1.525430         1.617093         1.324390
 H         2.090559         0.197546         2.089617
 H         4.852872         0.810455         1.723050
 H         1.972007         2.783703        -0.067144
 H         3.242617         2.618500        -1.289842
 H         1.287442         0.942429        -2.005315
 H         3.988746        -0.278954        -1.451865
