19
Iteration:   143charge 0 multiplicity 1
 C        -0.154862        -0.438848         0.174446
 C         1.263682         0.075266         0.028542
 C         2.001120         0.818960         1.220965
 C         3.253470         1.147115         0.421811
 O         4.515668         1.390221         1.069565
 C         2.768231         2.044345        -0.661584
 C         2.003592         0.869231        -1.190161
 C         3.168010        -0.010973        -0.624889
 O         2.370133        -1.099544        -0.216594
 H        -0.097708        -1.207993         0.852769
 H        -0.760826         0.351462         0.631207
 H        -0.630972        -0.622953        -0.758143
 H         1.471285         1.684579         1.530085
 H         2.087471         0.129660         2.009557
 H         4.550160         0.983080         1.887978
 H         2.276274         3.001815        -0.486166
 H         3.635372         2.211912        -1.297200
 H         1.556899         0.811159        -2.183685
 H         4.059882        -0.301736        -1.076353
