19
Iteration:  2031charge 0 multiplicity 1
 C        -0.030557        -0.506675         0.143196
 C         1.366207         0.052706         0.031309
 C         2.114674         0.660486         1.278072
 C         3.211799         1.205690         0.429089
 O         4.524222         1.486280         0.982690
 C         2.614427         2.106828        -0.632925
 C         1.916942         0.870072        -1.141403
 C         3.096553        -0.006340        -0.712974
 O         2.351720        -1.051362        -0.161409
 H         0.130577        -1.546100         0.416891
 H        -0.778650         0.073413         0.670619
 H        -0.528419        -0.683562        -0.797245
 H         1.522514         1.374498         2.040414
 H         2.413067        -0.057661         1.965076
 H         4.458461         1.281516         1.930469
 H         2.212872         3.081371        -0.358404
 H         3.520511         2.382415        -1.209257
 H         1.496200         0.725152        -2.148524
 H         4.014453        -0.421959        -1.197672
