19
Iteration:  4126
 C        -0.024607        -0.433049         0.217387
 C         1.390180        -0.043468         0.090885
 C         2.111430         0.633094         1.312906
 C         3.338411         1.124441         0.397712
 O         4.511093         1.637974         0.988066
 C         2.581207         2.086619        -0.544909
 C         1.961140         0.822241        -1.104111
 C         3.149731        -0.016186        -0.803113
 O         2.264835        -1.143545        -0.289902
 H        -0.611796        -0.361379         1.239510
 H        -0.742813         0.260248        -0.367272
 H        -0.167193        -1.386844        -0.254772
 H         1.640387         1.588191         1.801166
 H         2.467888        -0.053582         2.032103
 H         4.388452         1.849391         2.013802
 H         2.074657         3.058136        -0.328747
 H         3.308731         2.371503        -1.334923
 H         1.282364         0.652513        -2.023483
 H         3.817386        -0.222381        -1.564977
