19
Iteration:  3484
 C        -0.077385        -0.457446         0.197808
 C         1.384215        -0.038099         0.131325
 C         2.059823         0.671742         1.273748
 C         3.295154         1.182696         0.410551
 O         4.498019         1.512880         0.926385
 C         2.535375         2.142221        -0.569472
 C         1.929504         0.796771        -1.157987
 C         3.245950        -0.003981        -0.770290
 O         2.385352        -1.090362        -0.210013
 H        -0.207567        -1.500356         0.354624
 H        -0.606938         0.264875         0.932485
 H        -0.694183        -0.239215        -0.676902
 H         1.533377         1.432712         1.729294
 H         2.352406        -0.085004         1.985109
 H         4.446461         1.798459         1.907753
 H         1.917523         2.850982         0.001269
 H         3.171048         2.746472        -1.208723
 H         1.385126         0.621585        -2.161684
 H         4.062259        -0.425691        -1.331240
