19
Iteration:   672charge 0 multiplicity 1
 C        -0.093588        -0.354348         0.199155
 C         1.343486        -0.012703         0.006920
 C         2.005060         0.773533         1.190153
 C         3.314389         1.062412         0.396934
 O         4.519430         1.490310         1.120070
 C         2.716244         2.116541        -0.624624
 C         1.979556         0.839565        -1.108152
 C         3.188593        -0.110676        -0.696953
 O         2.309744        -1.154156        -0.252814
 H        -0.201655        -1.156484         0.834602
 H        -0.712808         0.418729         0.542596
 H        -0.552604        -0.732352        -0.780769
 H         1.425049         1.759009         1.501835
 H         2.009722         0.123217         2.093638
 H         4.263383         2.260123         1.782348
 H         2.155496         2.899736        -0.166678
 H         3.337764         2.480040        -1.428899
 H         1.583705         0.990086        -2.078729
 H         3.945318        -0.449736        -1.348755
