19
Iteration:  1321
 C        -0.118496        -0.385665        -0.002143
 C         1.335284        -0.039183         0.080818
 C         2.018574         0.727481         1.318666
 C         3.310625         1.139269         0.414972
 O         4.554153         1.496601         0.898566
 C         2.686623         2.088529        -0.537908
 C         1.960392         0.845448        -1.092350
 C         3.109536         0.041774        -0.657670
 O         2.376276        -1.142926        -0.140021
 H        -0.439625        -0.990469         0.822260
 H        -0.856668         0.504910         0.029023
 H        -0.327828        -1.109700        -0.858361
 H         1.386753         1.553429         1.580476
 H         2.263582         0.002385         2.247379
 H         4.705208         0.907198         1.743570
 H         2.096881         2.954529        -0.089747
 H         3.345321         2.454280        -1.376873
 H         1.285332         0.999666        -1.999630
 H         3.988907        -0.193262        -1.339222
