19
Iteration:  2735
 C        -0.099204        -0.485306         0.147765
 C         1.394828        -0.051035         0.084464
 C         2.096300         0.758729         1.211753
 C         3.353686         1.145954         0.374077
 O         4.517871         1.537270         1.031480
 C         2.544801         2.152003        -0.453724
 C         1.894581         0.808741        -1.076960
 C         3.181634         0.011338        -0.753437
 O         2.345895        -1.109244        -0.279697
 H        -0.323281        -0.840379         1.189107
 H        -0.664819         0.454535        -0.031518
 H        -0.358168        -1.361265        -0.539026
 H         1.417344         1.700192         1.661777
 H         2.348615         0.077697         1.979907
 H         5.080921         0.755300         1.061164
 H         1.734575         2.690921         0.073846
 H         3.181346         2.676222        -1.191727
 H         1.392120         0.841388        -2.009330
 H         3.933693        -0.171565        -1.441832
