19
Iteration:  1823
 C        -0.073740        -0.508746         0.207149
 C         1.365542        -0.051768         0.018738
 C         2.035335         0.662830         1.263030
 C         3.253145         1.162787         0.461092
 O         4.476086         1.558765         1.047571
 C         2.763214         2.145158        -0.668097
 C         1.900538         0.859845        -1.158662
 C         3.089960         0.030866        -0.704090
 O         2.356636        -1.081636        -0.229398
 H        -0.158944        -1.449433         0.848665
 H        -0.404494         0.396190         0.858446
 H        -0.762376        -0.639874        -0.645430
 H         1.485452         1.457299         1.766750
 H         2.203184        -0.105207         1.974451
 H         4.787049         0.807589         1.510099
 H         2.312262         3.168486        -0.563643
 H         3.619744         2.347664        -1.394080
 H         1.527813         0.784798        -2.114877
 H         4.014260        -0.253772        -1.174146
