19
Iteration:  3651
 C        -0.053994        -0.417018         0.259370
 C         1.359234         0.029081         0.079993
 C         2.118944         0.576895         1.223629
 C         3.265983         1.150130         0.402685
 O         4.431292         1.551144         1.071801
 C         2.593526         2.106572        -0.670150
 C         1.969776         0.774698        -1.177931
 C         3.154273         0.025884        -0.720896
 O         2.341448        -1.100449        -0.178162
 H        -0.201831        -1.321484         1.003268
 H        -0.659217         0.455793         0.607607
 H        -0.400160        -0.816245        -0.795134
 H         1.783946         1.380972         1.961685
 H         2.511128        -0.317134         1.828989
 H         4.683814         2.405600         0.766492
 H         2.090713         3.021794        -0.294327
 H         3.339488         2.417899        -1.431094
 H         1.505192         0.675173        -2.115003
 H         4.044200        -0.316863        -1.396502
