19
Iteration:  2635charge 0 multiplicity 1
 C        -0.029087        -0.532571         0.286257
 C         1.340536         0.002351         0.104431
 C         2.064060         0.616082         1.249053
 C         3.200619         1.153387         0.377903
 O         4.462137         1.450112         1.005002
 C         2.662923         2.168429        -0.701024
 C         1.946937         0.910036        -1.129983
 C         3.185642         0.085220        -0.681271
 O         2.356832        -1.066977        -0.274795
 H         0.232641        -1.513174         0.746314
 H        -0.550243         0.178764         0.809560
 H        -0.647751        -0.527176        -0.633471
 H         1.516415         1.524626         1.634056
 H         2.450986        -0.163989         1.892610
 H         4.343618         1.057177         1.810133
 H         2.158093         3.089206        -0.286200
 H         3.577728         2.429525        -1.263527
 H         1.231089         0.863382        -1.995292
 H         4.081187        -0.147594        -1.278856
