19
Iteration:  4718
 C        -0.055832        -0.418634         0.210026
 C         1.354796        -0.017574         0.086522
 C         2.113597         0.669274         1.230948
 C         3.309547         1.155590         0.399665
 O         4.632693         1.396040         0.905168
 C         2.487048         2.176270        -0.513359
 C         1.821148         0.869214        -1.077539
 C         3.134263        -0.006946        -0.724527
 O         2.391071        -1.085141        -0.231139
 H        -0.720545         0.304370        -0.163943
 H        -0.133328        -1.264921        -0.460593
 H        -0.319065        -0.919405         1.185872
 H         1.516209         1.498734         1.566442
 H         2.080235        -0.068946         1.982654
 H         4.625661         2.091833         1.515086
 H         1.825278         2.951788        -0.099339
 H         3.254813         2.564414        -1.175457
 H         1.391691         0.731569        -2.030972
 H         4.089422        -0.241170        -1.260221
