19
Iteration:  3892charge 0 multiplicity 1
 C        -0.048467        -0.682913         0.182544
 C         1.352776         0.007063         0.073142
 C         2.047525         0.803717         1.325154
 C         3.258685         1.202843         0.404381
 O         4.521427         1.342436         0.923509
 C         2.647327         2.153707        -0.630842
 C         1.932234         0.876543        -1.126833
 C         3.104108         0.073281        -0.641682
 O         2.347413        -1.038160        -0.170558
 H         0.056206        -1.702594         0.477346
 H        -0.584072        -0.156810         0.940424
 H        -0.366204        -0.526116        -0.897150
 H         1.543634         1.546250         1.859248
 H         2.324539         0.012643         2.073692
 H         4.657691         2.326384         0.861561
 H         2.033428         3.018768        -0.368014
 H         3.490109         2.460643        -1.277185
 H         1.420717         0.783148        -2.119354
 H         3.948929        -0.092869        -1.435495
