19
Iteration:   166
 C        -0.043227        -0.399682        -0.007423
 C         1.345313         0.021582         0.080473
 C         1.954017         0.795698         1.274146
 C         3.348878         1.111719         0.389357
 O         4.615991         1.382417         1.026805
 C         2.666052         2.127164        -0.599444
 C         2.002903         0.819640        -1.123244
 C         3.162550        -0.065148        -0.697537
 O         2.217252        -1.077398        -0.106123
 H        -0.164715        -1.176812         0.691550
 H        -0.716460         0.417410         0.281355
 H        -0.253730        -0.616017        -0.970235
 H         1.436652         1.716520         1.484300
 H         2.028804         0.203969         2.169331
 H         4.521186         1.733938         1.995621
 H         1.955183         2.821773        -0.163067
 H         3.263257         2.640867        -1.336952
 H         1.459032         0.695868        -2.109609
 H         3.865171        -0.502615        -1.377856
