19
Iteration:  2628
 C        -0.008182        -0.505484         0.261911
 C         1.344492        -0.004184         0.081060
 C         2.095322         0.588724         1.263851
 C         3.209144         1.235620         0.334691
 O         4.465510         1.439797         1.009911
 C         2.667981         2.178227        -0.670116
 C         1.944554         0.848023        -1.114286
 C         3.131276         0.100502        -0.692379
 O         2.338887        -1.059985        -0.247055
 H         0.122170        -1.419250         0.799747
 H        -0.708992         0.140019         0.938907
 H        -0.432689        -0.730875        -0.705472
 H         1.355838         1.292521         1.907840
 H         2.407801        -0.200718         1.934743
 H         4.372701         0.853411         1.759193
 H         2.340725         3.148221        -0.414582
 H         3.399453         2.471040        -1.438901
 H         1.604230         0.850317        -2.124543
 H         4.009462        -0.019910        -1.255659
