19
Iteration:  1909
 C        -0.078787        -0.434507         0.132564
 C         1.404186        -0.117174         0.122759
 C         2.073308         0.758601         1.286514
 C         3.295833         1.166916         0.404970
 O         4.461519         1.545692         0.958249
 C         2.651329         2.059255        -0.522145
 C         1.915061         0.867980        -1.116348
 C         3.168001         0.004977        -0.764218
 O         2.366223        -1.119545        -0.266342
 H        -0.223739        -0.953962         1.120019
 H        -0.724014         0.525481         0.075323
 H        -0.504901        -1.099335        -0.631407
 H         1.267019         1.545404         1.787101
 H         2.275081         0.113691         2.086254
 H         4.485088         1.108948         1.918098
 H         2.088010         2.927896        -0.110733
 H         3.418386         2.340046        -1.285858
 H         1.453671         0.945860        -2.044442
 H         4.037133        -0.191541        -1.332589
