19
Iteration:  4062charge 0 multiplicity 1
 C        -0.000293        -0.512563         0.269626
 C         1.391681        -0.008428         0.115376
 C         2.061431         0.822296         1.160994
 C         3.257715         1.132867         0.393134
 O         4.520277         1.459851         1.034868
 C         2.508246         2.145155        -0.561439
 C         1.940162         0.824463        -1.165561
 C         3.127028         0.007674        -0.771709
 O         2.416465        -1.094144        -0.218009
 H        -0.409770        -0.506032         1.374275
 H        -0.591369         0.066195        -0.542366
 H        -0.049360        -1.505616        -0.176183
 H         1.422248         1.680834         1.554560
 H         2.172105         0.302817         2.067411
 H         4.827628         0.569666         1.490817
 H         1.812784         2.914205        -0.124691
 H         3.201704         2.532913        -1.323897
 H         1.255433         1.133681        -1.995342
 H         3.903651        -0.222931        -1.490826
