19
Iteration:  2690
 C        -0.061055        -0.472518         0.190170
 C         1.347151        -0.004554         0.093129
 C         2.176662         0.630445         1.320759
 C         3.242078         1.169114         0.418274
 O         4.475794         1.507518         0.956985
 C         2.582702         2.143601        -0.609591
 C         1.938339         0.875681        -1.135734
 C         3.145655         0.018720        -0.728688
 O         2.344604        -1.067518        -0.270555
 H        -0.165989        -1.491894         0.712382
 H        -0.608842         0.257672         0.755448
 H        -0.355966        -0.695841        -0.880047
 H         1.651067         1.353764         2.091103
 H         2.513807        -0.135160         2.032038
 H         4.370644         1.191805         1.837537
 H         2.063518         2.984358        -0.086437
 H         3.325491         2.349351        -1.413482
 H         1.549341         0.863956        -2.172781
 H         4.029193        -0.284131        -1.257395
