19
Iteration:  3244charge 0 multiplicity 1
 C        -0.003871        -0.569763         0.233132
 C         1.391417        -0.013200         0.126515
 C         2.006037         0.798232         1.261012
 C         3.312259         1.124042         0.428703
 O         4.519799         1.527161         1.006695
 C         2.588004         2.135827        -0.559274
 C         1.897172         0.818341        -1.076601
 C         3.140036         0.018977        -0.877110
 O         2.365215        -1.066893        -0.260812
 H         0.193912        -1.519192         0.654959
 H        -0.770902        -0.019561         0.774052
 H        -0.548620        -0.691533        -0.661831
 H         1.391705         1.853351         1.305288
 H         2.053414         0.299979         2.244430
 H         4.741754         0.670704         1.554103
 H         2.124961         2.990619        -0.035336
 H         3.327082         2.402748        -1.347387
 H         1.389152         0.907247        -2.092556
 H         3.926480        -0.249839        -1.578749
