19
Iteration:  1163charge 0 multiplicity 1
 C        -0.115970        -0.383853         0.050849
 C         1.358997        -0.015396         0.128273
 C         2.022874         0.669400         1.294208
 C         3.246941         1.227598         0.493580
 O         4.542602         1.521929         0.954730
 C         2.682586         2.134488        -0.653058
 C         1.963338         0.791037        -1.122945
 C         3.139000        -0.020808        -0.666995
 O         2.330985        -1.113006        -0.183467
 H        -0.673159        -0.724008         1.057430
 H        -0.459571         0.570627        -0.320271
 H        -0.299861        -1.058188        -0.792086
 H         1.502024         1.523468         1.917457
 H         2.295268        -0.181916         1.986093
 H         4.735303         0.708412         1.391432
 H         2.114937         2.944803        -0.157004
 H         3.543420         2.334394        -1.332444
 H         1.558420         0.632847        -2.107975
 H         4.090200        -0.363470        -1.080007
