19
Iteration:  4065charge 0 multiplicity 1
 C        -0.018915        -0.500850         0.270416
 C         1.403612         0.010222         0.117769
 C         2.037818         0.819405         1.153756
 C         3.270955         1.124585         0.383258
 O         4.525147         1.467476         1.036507
 C         2.505998         2.134351        -0.557967
 C         1.942307         0.834554        -1.162530
 C         3.107737        -0.004216        -0.761497
 O         2.425301        -1.088620        -0.230894
 H        -0.299071        -0.482869         1.247717
 H        -0.536590         0.046521        -0.480722
 H        -0.099458        -1.569646        -0.122537
 H         1.457289         1.671809         1.512564
 H         2.286600         0.183914         2.153708
 H         4.775578         0.634012         1.553423
 H         1.765026         2.834390        -0.165286
 H         3.197682         2.577068        -1.285883
 H         1.221525         1.069407        -1.935594
 H         3.993373        -0.286099        -1.498294
