19
Iteration:  3554charge 0 multiplicity 1
 C        -0.022600        -0.579267         0.287215
 C         1.407509        -0.012159        -0.007996
 C         2.058077         0.815071         1.243016
 C         3.293446         1.123691         0.407097
 O         4.514372         1.528291         1.015152
 C         2.642669         2.120785        -0.554794
 C         1.825227         0.888747        -1.109820
 C         3.167212        -0.041496        -0.790695
 O         2.322688        -1.063440        -0.270356
 H        -0.052422        -1.161680         1.288698
 H        -0.781417         0.116499        -0.026278
 H        -0.177835        -1.527130        -0.396763
 H         1.544819         1.711542         1.653784
 H         2.197270         0.142618         1.989544
 H         4.611283         1.143388         1.923433
 H         2.147199         3.024947        -0.112141
 H         3.314982         2.514553        -1.364825
 H         1.224788         0.899181        -1.989846
 H         4.079014        -0.326893        -1.388365
