19
Iteration:  4258charge 0 multiplicity 1
 C        -0.076722        -0.371142         0.265939
 C         1.397588        -0.105078         0.121369
 C         2.071446         0.639826         1.306661
 C         3.236709         1.184521         0.352126
 O         4.460073         1.584170         0.958513
 C         2.583808         2.152703        -0.651556
 C         1.970352         0.778398        -1.211663
 C         3.173818        -0.008797        -0.708740
 O         2.359739        -1.108039        -0.213676
 H        -0.280278        -1.413809         0.596407
 H        -0.391602         0.448907         0.962923
 H        -0.466646        -0.371475        -0.737482
 H         1.429422         1.476650         1.789339
 H         2.439568        -0.129218         1.971168
 H         4.760155         0.967633         1.745935
 H         1.939843         2.919660        -0.149803
 H         3.482050         2.508921        -1.173305
 H         1.466656         0.667094        -2.241938
 H         4.175589        -0.180865        -1.188018
