19
Iteration:  4668
 C         0.037202        -0.602476         0.296889
 C         1.312424         0.046075         0.055171
 C         2.052328         0.743015         1.264860
 C         3.265098         1.208997         0.318521
 O         4.549968         1.272796         1.010833
 C         2.596956         2.155414        -0.685851
 C         1.883128         0.936649        -1.112979
 C         3.136146         0.040435        -0.757024
 O         2.359446        -1.007313        -0.197418
 H        -0.785931         0.150763         0.450979
 H        -0.361734        -1.189806        -0.560723
 H         0.240269        -1.347982         1.017116
 H         1.494449         1.547012         1.788188
 H         2.380491        -0.106893         1.999670
 H         4.496403         1.648354         1.978253
 H         2.179065         2.991299        -0.112764
 H         3.249787         2.543887        -1.535329
 H         1.129466         1.000570        -1.979882
 H         3.988605        -0.070545        -1.432190
