19
Iteration:  3624
 C        -0.052196        -0.441915         0.144179
 C         1.413323        -0.060240         0.132545
 C         2.088112         0.753292         1.270160
 C         3.283797         1.121949         0.415745
 O         4.496110         1.505533         1.071382
 C         2.472573         2.168755        -0.600664
 C         1.951730         0.787567        -1.092488
 C         3.152683        -0.003919        -0.787569
 O         2.380295        -1.157153        -0.227055
 H        -0.211523        -0.857124         1.086469
 H        -0.415570         0.587677        -0.142979
 H        -0.358404        -1.125744        -0.569525
 H         1.676930         1.721671         1.529540
 H         2.345212         0.201310         2.258076
 H         5.103064         1.799584         0.437379
 H         1.862573         2.898083        -0.066957
 H         3.048679         2.694659        -1.369511
 H         1.177586         0.666846        -1.934683
 H         3.987666        -0.321706        -1.324412
