19
Iteration:   346charge 0 multiplicity 1
 C        -0.116408        -0.382202        -0.041870
 C         1.309880         0.040595         0.147174
 C         2.032768         0.694001         1.354114
 C         3.230205         1.143296         0.449632
 O         4.537668         1.482908         1.013834
 C         2.659478         2.047976        -0.663068
 C         1.966391         0.833349        -1.176006
 C         3.181948        -0.027505        -0.603670
 O         2.331621        -1.040828        -0.176812
 H        -0.265057        -1.304756         0.495637
 H        -0.725390         0.405549         0.344471
 H        -0.440733        -0.560474        -1.109711
 H         1.707027         1.631975         2.022885
 H         2.374203        -0.108009         2.074837
 H         5.055261         0.727463         1.188582
 H         2.069889         2.949476        -0.407286
 H         3.443730         2.459838        -1.313393
 H         1.442075         0.703749        -2.119084
 H         4.213449        -0.413120        -0.971682
