19
Iteration:  2019
 C        -0.012610        -0.582609         0.080882
 C         1.312693         0.087406         0.079902
 C         2.134376         0.702888         1.302012
 C         3.267719         1.199409         0.422538
 O         4.469894         1.454815         0.956414
 C         2.662959         2.197744        -0.599515
 C         1.945765         0.866560        -1.213880
 C         3.124158        -0.014303        -0.682161
 O         2.316690        -1.109233        -0.112603
 H        -0.038564        -1.391138         0.774391
 H        -0.621687         0.108232         0.711302
 H        -0.293959        -0.665978        -0.936264
 H         1.674459         1.627896         1.951072
 H         2.392889        -0.233076         1.641441
 H         4.522035         1.192184         1.843147
 H         1.863094         2.828015        -0.191561
 H         3.376063         2.599944        -1.340086
 H         1.302763         0.825399        -2.083040
 H         3.974900        -0.150037        -1.361000
