19
Iteration:  4616
 C        -0.032364        -0.412713         0.256906
 C         1.330293        -0.039544         0.016614
 C         2.142462         0.596854         1.275989
 C         3.274887         1.081223         0.431245
 O         4.516122         1.531799         0.953050
 C         2.550541         2.155662        -0.565166
 C         1.961678         0.834418        -1.105549
 C         3.133578         0.044011        -0.765116
 O         2.327460        -1.078542        -0.250893
 H        -0.502264         0.231866         1.107562
 H        -0.628736        -0.328970        -0.701690
 H        -0.072360        -1.460119         0.632153
 H         1.684687         1.459883         1.776131
 H         2.446200        -0.174889         1.978977
 H         4.599601         1.779526         1.953164
 H         2.020466         3.144104        -0.453416
 H         3.269651         2.458576        -1.375746
 H         1.355797         0.442709        -2.045162
 H         3.955834        -0.170753        -1.462761
