19
Iteration:  2057charge 0 multiplicity 1
 C        -0.108489        -0.485005         0.255530
 C         1.380484        -0.051116         0.052579
 C         2.050713         0.764930         1.234901
 C         3.302405         1.168363         0.406726
 O         4.492397         1.559082         1.047097
 C         2.661624         2.121230        -0.624718
 C         1.941859         0.834281        -1.080712
 C         3.154923         0.004427        -0.742620
 O         2.381221        -1.172447        -0.322622
 H        -0.398312        -1.551636         0.550179
 H        -0.598168         0.252719         0.907108
 H        -0.648728        -0.413022        -0.762706
 H         1.547282         1.657848         1.435223
 H         2.080751         0.154322         2.238410
 H         4.386732         1.241636         1.935846
 H         2.141523         2.901149        -0.061521
 H         3.427295         2.645248        -1.198771
 H         1.426118         0.649546        -2.056185
 H         4.020140        -0.256582        -1.417404
