19
Iteration:  4259charge 0 multiplicity 1
 C        -0.081207        -0.370892         0.274158
 C         1.400726        -0.110813         0.108807
 C         2.070777         0.646375         1.311696
 C         3.241626         1.180490         0.354212
 O         4.457846         1.580300         0.956005
 C         2.577694         2.152642        -0.647895
 C         1.970434         0.774736        -1.214006
 C         3.173622        -0.009227        -0.705526
 O         2.363226        -1.107249        -0.213338
 H        -0.308832        -1.393595         0.602510
 H        -0.373110         0.466408         0.949459
 H        -0.429806        -0.364048        -0.777927
 H         1.445533         1.476447         1.772344
 H         2.419783        -0.128478         1.949923
 H         4.762357         0.987959         1.763771
 H         1.932917         2.935131        -0.148426
 H         3.464258         2.528974        -1.192384
 H         1.454309         0.699212        -2.195289
 H         4.206986        -0.180762        -1.201394
