19
Iteration:  4160charge 0 multiplicity 1
 C        -0.074439        -0.458768         0.241745
 C         1.371126        -0.003117         0.082921
 C         2.042123         0.701338         1.250413
 C         3.262769         1.178969         0.360631
 O         4.523970         1.433544         0.952818
 C         2.515473         2.182127        -0.596859
 C         1.956184         0.858748        -1.173392
 C         3.204986         0.030938        -0.763986
 O         2.410726        -1.106528        -0.138318
 H        -0.178912        -0.945273         1.285793
 H        -0.672038         0.498861        -0.016300
 H        -0.403660        -1.239734        -0.520331
 H         1.628342         1.540880         1.932623
 H         2.396477        -0.031124         1.928980
 H         4.422696         1.024361         1.917030
 H         1.770045         2.957756        -0.263606
 H         3.258970         2.462775        -1.366323
 H         1.395164         0.619164        -2.127996
 H         4.052804        -0.246427        -1.434555
