19
Iteration:  1558charge 0 multiplicity 1
 C        -0.073864        -0.397744         0.218971
 C         1.398841        -0.035594         0.067310
 C         2.055118         0.755736         1.194030
 C         3.294451         1.101311         0.391044
 O         4.506638         1.488365         1.091630
 C         2.618713         2.125566        -0.553660
 C         1.989386         0.860815        -1.115325
 C         3.170232        -0.004779        -0.767274
 O         2.332550        -1.126700        -0.301634
 H        -0.224010        -0.613166         1.255813
 H        -0.768051         0.315152        -0.242099
 H        -0.406108        -1.407553        -0.241828
 H         1.466993         1.809254         1.504216
 H         2.214801         0.198848         2.163513
 H         4.653305         1.067331         1.918140
 H         1.679953         2.617084        -0.172242
 H         3.140867         2.764721        -1.326743
 H         1.404394         0.755546        -2.070586
 H         3.942551        -0.403997        -1.464593
