19
Iteration:  2138charge 0 multiplicity 1
 C        -0.022313        -0.503048         0.086833
 C         1.360160        -0.013571         0.121280
 C         1.998040         0.745620         1.234810
 C         3.331999         1.088056         0.403898
 O         4.549228         1.530198         0.955191
 C         2.587055         2.132335        -0.470630
 C         1.915661         0.815073        -1.086567
 C         3.075777         0.059420        -0.768705
 O         2.383694        -1.115683        -0.210664
 H        -0.344974        -0.742640         1.125702
 H        -0.867581         0.377557        -0.287332
 H        -0.090576        -1.284171        -0.695616
 H         1.543317         1.831704         1.454277
 H         2.174902         0.187894         2.324441
 H         4.920536         0.920807         1.625136
 H         2.185267         2.985634         0.143258
 H         3.277521         2.498439        -1.273600
 H         1.354740         0.730469        -2.022542
 H         3.924318        -0.271112        -1.371054
