19
Iteration:  3726
 C        -0.049568        -0.577465         0.204767
 C         1.363650         0.037148         0.075296
 C         2.069095         0.767017         1.234767
 C         3.236408         1.175807         0.348758
 O         4.463600         1.318915         1.037750
 C         2.593495         2.167085        -0.681140
 C         1.906703         0.817543        -1.171331
 C         3.137551         0.089033        -0.732689
 O         2.410533        -1.013523        -0.064416
 H        -0.047942        -1.456485         0.738100
 H        -0.739909        -0.032262         0.857565
 H        -0.353469        -0.701403        -0.820198
 H         1.506137         1.501252         1.886372
 H         2.547830        -0.094293         1.957180
 H         4.997613         2.126082         0.662856
 H         1.872720         2.960111        -0.476458
 H         3.482882         2.480243        -1.203587
 H         1.453287         0.575876        -2.107101
 H         4.160937        -0.206995        -1.214424
