19
Iteration:  3445charge 0 multiplicity 1
 C        -0.018758        -0.582068         0.162565
 C         1.361821         0.030344         0.122172
 C         2.039655         0.666557         1.328096
 C         3.256547         1.233711         0.362457
 O         4.564743         1.415573         0.968790
 C         2.579879         2.130188        -0.623919
 C         1.906956         0.833553        -1.120026
 C         3.155388         0.061214        -0.706276
 O         2.321727        -1.029528        -0.231495
 H        -0.050063        -1.642343         0.547016
 H        -0.662437        -0.131037         0.857117
 H        -0.343261        -0.655107        -0.916737
 H         1.507821         1.560626         1.938785
 H         2.440430        -0.084438         2.091154
 H         4.556541         2.135357         1.536604
 H         2.152495         3.082979        -0.231527
 H         3.349792         2.358908        -1.395588
 H         1.392944         0.634360        -1.994524
 H         4.052180        -0.164020        -1.344268
