19
Iteration:  4380
 C        -0.000544        -0.505206         0.288950
 C         1.356812         0.026296         0.114067
 C         2.077739         0.713045         1.218310
 C         3.224874         1.195846         0.360306
 O         4.497982         1.253071         1.001887
 C         2.523497         2.156935        -0.652893
 C         1.976146         0.861732        -1.153304
 C         3.101956         0.067071        -0.670348
 O         2.433949        -1.023004        -0.244138
 H        -0.441080        -0.225218         1.225555
 H        -0.542373        -0.042253        -0.529966
 H         0.056121        -1.654204         0.249322
 H         1.526820         1.587266         1.716089
 H         2.462392        -0.043361         1.915708
 H         4.444153         2.000222         1.570152
 H         1.787334         2.930507        -0.279962
 H         3.211298         2.659424        -1.325781
 H         1.508195         0.853301        -2.087786
 H         3.912310        -0.189202        -1.451875
