19
Iteration:  4043charge 0 multiplicity 1
 C        -0.070084        -0.606257         0.211508
 C         1.400164         0.008573         0.109041
 C         2.005495         0.747937         1.251575
 C         3.276835         1.171131         0.342895
 O         4.488958         1.437792         1.013593
 C         2.653502         2.179812        -0.652354
 C         1.883394         0.868765        -1.103364
 C         3.118130         0.091097        -0.701372
 O         2.393962        -1.035484        -0.183849
 H        -0.074076        -0.736651         1.227877
 H        -0.717714         0.066495        -0.315083
 H        -0.237001        -1.629160        -0.245565
 H         1.449618         1.627762         1.670286
 H         2.441605         0.095261         2.170256
 H         4.940373         0.563604         0.978567
 H         2.021927         2.984193        -0.264747
 H         3.361297         2.514478        -1.419641
 H         1.372985         0.561384        -2.046437
 H         4.061246        -0.253562        -1.334924
