19
Iteration:   710
 C        -0.110443        -0.400815         0.223232
 C         1.330932         0.070150        -0.010018
 C         2.007144         0.728229         1.279689
 C         3.245636         1.222167         0.437744
 O         4.427115         1.301568         1.093560
 C         2.716010         2.124952        -0.743873
 C         2.054774         0.854583        -1.199421
 C         3.185078        -0.032317        -0.603994
 O         2.336499        -1.114656        -0.213821
 H        -0.052921        -1.434083         0.836942
 H        -0.637868         0.388157         0.901010
 H        -0.458064        -0.664516        -0.879009
 H         1.700649         1.502296         1.939525
 H         2.418657        -0.072826         1.904924
 H         4.451220         2.179329         1.410551
 H         1.997805         3.012676        -0.610933
 H         3.491273         2.537674        -1.445220
 H         1.617277         0.768829        -2.254689
 H         4.059253        -0.266491        -1.287517
