19
Iteration:  1416
 C         0.023735        -0.417501         0.220526
 C         1.352867         0.053537         0.063979
 C         2.068028         0.721021         1.179637
 C         3.361973         1.168606         0.427515
 O         4.450008         1.533381         1.099430
 C         2.676676         2.123123        -0.579515
 C         1.964989         0.838266        -1.176722
 C         3.132829        -0.150087        -0.747426
 O         2.260106        -1.091979        -0.267417
 H        -0.098339        -1.313300         0.843811
 H        -0.675804         0.375555         0.643948
 H        -0.530860        -0.825348        -0.748154
 H         1.404501         1.598662         1.528828
 H         2.330827         0.097667         2.006296
 H         4.508126         1.074570         1.953189
 H         1.964456         2.808332        -0.018526
 H         3.288815         2.566298        -1.407723
 H         1.476041         0.700828        -2.162313
 H         3.957888        -0.431322        -1.421425
