19
Iteration:  3581charge 0 multiplicity 1
 C        -0.095564        -0.600360         0.251507
 C         1.373296        -0.021777         0.073948
 C         2.106137         0.705252         1.356469
 C         3.238029         1.168897         0.398824
 O         4.463873         1.459495         0.972955
 C         2.603559         2.232491        -0.671867
 C         1.938424         0.915576        -1.194730
 C         3.179991         0.070342        -0.699889
 O         2.352912        -1.053664        -0.177180
 H        -0.439100        -0.968727         1.181578
 H        -0.856185         0.017229        -0.296718
 H        -0.029454        -1.490151        -0.271060
 H         1.609163         1.474214         1.979809
 H         2.375520        -0.292420         2.064001
 H         4.958122         0.585031         1.074818
 H         2.031704         3.118370        -0.432788
 H         3.394115         2.567967        -1.333891
 H         1.720996         0.751108        -2.314700
 H         3.994330        -0.136332        -1.362530
