19
Iteration:   303charge 0 multiplicity 1
 C        -0.088986        -0.411866         0.106261
 C         1.330596         0.016819         0.034581
 C         1.971847         0.807429         1.237429
 C         3.312123         1.075472         0.406375
 O         4.488933         1.430416         1.118387
 C         2.691683         2.087529        -0.579561
 C         1.973626         0.852935        -1.199605
 C         3.173392        -0.038690        -0.698416
 O         2.357385        -1.068231        -0.148089
 H        -0.162216        -1.334303         0.651446
 H        -0.782627         0.315443         0.488450
 H        -0.588955        -0.443105        -0.932417
 H         1.244721         1.720324         1.408099
 H         1.999480         0.296277         2.232380
 H         5.159980         0.886682         0.808223
 H         2.201496         3.031191        -0.285598
 H         3.487704         2.440733        -1.261430
 H         1.339165         0.733234        -2.007325
 H         4.148494        -0.364638        -1.114561
