19
Iteration:  3096charge 0 multiplicity 1
 C        -0.032740        -0.620569         0.171892
 C         1.382704        -0.064169         0.090283
 C         2.039208         0.784324         1.239390
 C         3.320994         1.140115         0.390361
 O         4.576793         1.407905         0.990924
 C         2.673430         2.162743        -0.540353
 C         1.848028         0.866024        -1.098066
 C         3.064366         0.078734        -0.791375
 O         2.366714        -1.056659        -0.230837
 H        -0.143626        -1.542912         0.763652
 H        -0.698867        -0.057556         0.833747
 H        -0.560848        -0.829818        -0.800631
 H         1.480655         1.651538         1.563044
 H         2.067509         0.171181         2.309112
 H         4.450117         2.137996         1.611517
 H         2.110673         2.987399        -0.071601
 H         3.383845         2.705077        -1.146109
 H         1.372445         0.731912        -2.031899
 H         3.856371         0.006212        -1.554617
