19
Iteration:  4262charge 0 multiplicity 1
 C        -0.089623        -0.370972         0.289603
 C         1.408106        -0.117319         0.071394
 C         2.070627         0.671533         1.312653
 C         3.253543         1.163974         0.372395
 O         4.454335         1.566734         0.952466
 C         2.560068         2.146832        -0.632698
 C         1.971445         0.771174        -1.212465
 C         3.181277        -0.009038        -0.701334
 O         2.377475        -1.109066        -0.211912
 H        -0.396122        -1.334793         0.660122
 H        -0.365960         0.486121         0.879970
 H        -0.362074        -0.318863        -0.842952
 H         1.516314         1.449383         1.720806
 H         2.378392        -0.158595         1.957706
 H         4.705811         1.102442         1.714343
 H         1.939307         2.949377        -0.188977
 H         3.365225         2.599302        -1.271685
 H         1.407479         0.778369        -2.075691
 H         4.194482        -0.196401        -1.213237
