19
Iteration:  2938
 C        -0.027769        -0.519601         0.239261
 C         1.385442        -0.066004         0.100086
 C         2.011994         0.709953         1.265175
 C         3.260685         1.163827         0.472802
 O         4.503265         1.475403         0.998164
 C         2.630277         2.144701        -0.566354
 C         1.862459         0.862211        -1.115744
 C         3.116394         0.119266        -0.755020
 O         2.407341        -1.116962        -0.303307
 H        -0.195040        -0.962535         1.227853
 H        -0.650957         0.279564        -0.013062
 H        -0.317342        -1.171958        -0.578525
 H         1.426176         1.625874         1.613838
 H         2.347620         0.031785         2.095880
 H         4.998235         0.734344         1.145517
 H         2.117734         3.071658        -0.301356
 H         3.445812         2.386034        -1.241553
 H         1.401604         0.948013        -2.088315
 H         3.940038         0.103867        -1.470605
