19
Iteration:   172
 C        -0.060355        -0.397931        -0.047730
 C         1.315028         0.030170         0.129533
 C         2.028141         0.771370         1.274288
 C         3.330648         1.130714         0.346241
 O         4.589033         1.362326         1.004555
 C         2.629676         2.111873        -0.603390
 C         2.039010         0.890077        -1.106619
 C         3.180263        -0.086931        -0.669117
 O         2.228625        -1.079959        -0.091466
 H        -0.319311        -1.186530         0.746970
 H        -0.608938         0.504187         0.295873
 H        -0.198227        -0.770411        -1.215011
 H         1.444454         1.698277         1.526781
 H         2.038604         0.139699         2.201631
 H         4.349506         1.881590         1.828369
 H         1.871523         2.780005        -0.130933
 H         3.340643         2.603387        -1.309135
 H         1.472315         0.851290        -1.991519
 H         3.942264        -0.664233        -1.250009
