19
Iteration:  3698
 C        -0.037697        -0.520855         0.279805
 C         1.384068        -0.033349         0.074946
 C         2.033014         0.814852         1.225532
 C         3.311173         1.106509         0.357046
 O         4.498175         1.472317         1.100452
 C         2.635847         2.155118        -0.650950
 C         1.919234         0.821748        -1.107276
 C         3.161349        -0.004387        -0.750554
 O         2.321365        -1.129451        -0.240285
 H         0.178580        -1.686342         0.557703
 H        -0.498278         0.119097         1.100401
 H        -0.622711        -0.578896        -0.728066
 H         1.296487         1.665130         1.305092
 H         2.177576         0.382757         2.136879
 H         4.709699         2.490738         0.967807
 H         1.895801         2.906140        -0.265015
 H         3.392262         2.660523        -1.329152
 H         1.448852         0.495819        -2.081601
 H         3.985133        -0.270757        -1.376282
