19
Iteration:   617
 C        -0.084584        -0.421383         0.004825
 C         1.325108         0.062347         0.040176
 C         2.058601         0.773701         1.231384
 C         3.241747         1.177208         0.410968
 O         4.567376         1.288962         0.963527
 C         2.629791         2.158373        -0.582371
 C         1.971460         0.788474        -1.161828
 C         3.143573         0.011942        -0.626299
 O         2.354691        -1.060261        -0.056191
 H        -0.292842        -0.764417         1.004246
 H        -0.719738         0.377908        -0.304283
 H        -0.062703        -1.284394        -0.719562
 H         1.525415         1.740754         1.566641
 H         2.177895        -0.006095         2.018213
 H         4.580777         1.513314         1.986259
 H         1.848423         2.763317        -0.175259
 H         3.338754         2.717193        -1.166107
 H         1.402904         0.710363        -2.092050
 H         3.982381        -0.286160        -1.248099
