19
Iteration:   964
 C        -0.143531        -0.405029         0.227270
 C         1.379992        -0.038711        -0.010260
 C         2.083351         0.736201         1.203073
 C         3.290210         1.213569         0.441848
 O         4.497596         1.456687         1.094710
 C         2.688584         2.028274        -0.601194
 C         2.019094         0.842244        -1.182673
 C         3.133977        -0.092342        -0.686776
 O         2.298882        -1.123377        -0.271777
 H        -0.290410        -0.708384         1.337327
 H        -0.648886         0.519363         0.053988
 H        -0.483888        -1.125368        -0.427653
 H         1.364445         1.721940         1.325562
 H         2.350847         0.286301         2.138702
 H         4.335286         2.233166         1.794498
 H         2.168354         2.953435        -0.189476
 H         3.470999         2.633084        -1.231967
 H         1.521672         0.887934        -2.174474
 H         4.008518        -0.405080        -1.303688
