19
Iteration:  2839
 C        -0.060699        -0.489967         0.241958
 C         1.380694         0.013008         0.078735
 C         2.120821         0.618792         1.250665
 C         3.237477         1.127227         0.411645
 O         4.472056         1.474082         0.989790
 C         2.577666         2.152980        -0.646370
 C         1.967835         0.907344        -1.141702
 C         3.154545         0.038414        -0.750575
 O         2.367829        -1.072948        -0.233563
 H        -0.156756        -1.411715         0.813240
 H        -0.605538         0.235694         0.749847
 H        -0.509235        -0.563123        -0.736715
 H         1.761304         1.352553         2.101039
 H         2.528846        -0.270356         1.903522
 H         4.397838         1.359922         1.897145
 H         1.925539         2.899382        -0.237605
 H         3.168242         2.706191        -1.333211
 H         1.370667         0.786439        -2.069621
 H         4.100947        -0.171286        -1.338336
