19
Iteration:  2074charge 0 multiplicity 1
 C        -0.034543        -0.417756         0.247064
 C         1.374835        -0.038445         0.072650
 C         2.069857         0.730791         1.158227
 C         3.278905         1.149345         0.389385
 O         4.443394         1.562649         1.110164
 C         2.620880         2.121787        -0.529803
 C         1.970868         0.827961        -1.201328
 C         3.165517        -0.059034        -0.787210
 O         2.355263        -1.133630        -0.264484
 H         0.115488        -1.379976         0.700879
 H        -0.537812         0.345209         0.880808
 H        -0.722390        -0.515376        -0.551766
 H         1.369532         1.465100         1.792526
 H         2.329741         0.182037         2.064287
 H         4.681374         1.068790         1.828686
 H         1.948507         2.937358        -0.248854
 H         3.167496         2.436596        -1.437640
 H         1.439096         0.955119        -2.161560
 H         4.035166        -0.380435        -1.401527
