19
Iteration:  1324
 C        -0.143805        -0.394360        -0.006659
 C         1.350746        -0.018919         0.070673
 C         2.024115         0.741026         1.304403
 C         3.327354         1.117956         0.410917
 O         4.543797         1.481519         0.909313
 C         2.653384         2.114469        -0.515957
 C         1.950906         0.828013        -1.068974
 C         3.148561         0.042273        -0.680111
 O         2.365192        -1.147530        -0.131712
 H        -0.387038        -0.998429         0.853067
 H        -0.767855         0.450221        -0.098723
 H        -0.323616        -1.037271        -0.767380
 H         1.432223         1.698790         1.553370
 H         2.229390         0.043938         2.188578
 H         4.791256         0.991298         1.643384
 H         2.100720         2.905353        -0.107289
 H         3.312071         2.417283        -1.308904
 H         1.309847         0.932870        -1.989841
 H         3.987228        -0.161165        -1.389600
