19
Iteration:  3420
 C        -0.011786        -0.632446         0.254050
 C         1.374167         0.024622         0.083038
 C         2.074869         0.670439         1.267860
 C         3.234605         1.190042         0.391064
 O         4.481339         1.320227         1.007518
 C         2.596064         2.224552        -0.674265
 C         1.913275         0.943351        -1.207913
 C         3.120567         0.088692        -0.708577
 O         2.389631        -1.065401        -0.193974
 H        -0.117925        -1.394850         1.049076
 H        -0.797099         0.194520         0.597290
 H        -0.273464        -1.168852        -0.710342
 H         1.681031         1.536325         1.810731
 H         2.345412        -0.031066         1.942205
 H         4.683988         2.135330         1.443732
 H         2.062274         3.089347        -0.179894
 H         3.439724         2.667731        -1.227404
 H         1.375656         0.663552        -2.113105
 H         4.001317        -0.131497        -1.306879
