19
Iteration:   459
 C        -0.045481        -0.464131         0.005137
 C         1.320689         0.027385         0.144528
 C         1.978434         0.800857         1.236435
 C         3.330698         1.176443         0.405697
 O         4.596652         1.336380         1.045133
 C         2.679903         2.140426        -0.616754
 C         1.920973         0.878581        -1.087941
 C         3.151343        -0.037302        -0.707352
 O         2.298278        -1.106943        -0.173983
 H        -0.310139        -1.179795         0.796779
 H        -0.703003         0.441689         0.067367
 H        -0.061809        -1.084784        -0.874000
 H         1.476504         1.873249         1.562623
 H         2.080038         0.195654         2.170315
 H         4.469847         1.760008         1.967518
 H         2.089934         2.968828        -0.163433
 H         3.218231         2.645193        -1.436706
 H         1.467585         0.595373        -2.045430
 H         3.878739        -0.406873        -1.350091
