19
Iteration:  4615charge 0 multiplicity 1
 C        -0.035644        -0.408409         0.255725
 C         1.331928        -0.039282         0.015382
 C         2.147711         0.592079         1.264823
 C         3.270803         1.079090         0.436112
 O         4.518251         1.529967         0.952455
 C         2.537849         2.151931        -0.568872
 C         1.966476         0.824375        -1.107874
 C         3.133551         0.054224        -0.764341
 O         2.326913        -1.076514        -0.242810
 H        -0.504631         0.223795         1.122875
 H        -0.598545        -0.318119        -0.721937
 H        -0.086242        -1.404904         0.633083
 H         1.720894         1.463853         1.774816
 H         2.472924        -0.210056         1.993013
 H         4.594995         1.763559         1.975660
 H         2.020371         3.138188        -0.446169
 H         3.286310         2.475574        -1.369266
 H         1.338326         0.432131        -2.044640
 H         3.959454        -0.114872        -1.460634
