19
Iteration:   563
 C        -0.059322        -0.439999         0.208534
 C         1.308899         0.053669         0.020842
 C         2.087861         0.659605         1.279302
 C         3.247874         1.174970         0.378625
 O         4.435208         1.371629         1.181055
 C         2.739882         2.093598        -0.695262
 C         1.998931         0.867108        -1.262871
 C         3.164098        -0.030392        -0.678480
 O         2.271319        -1.044907        -0.199154
 H        -0.030138        -1.029200         1.098815
 H        -0.604804         0.464123         0.311429
 H        -0.476374        -0.874403        -0.732047
 H         1.658555         1.463812         1.868012
 H         2.446911        -0.145090         1.899867
 H         4.302935         2.318790         1.569427
 H         2.337775         3.079147        -0.557073
 H         3.583870         2.200763        -1.401483
 H         1.555639         0.899770        -2.291963
 H         4.014922        -0.401064        -1.290162
