19
Iteration:   242
 C        -0.088773        -0.387806         0.202667
 C         1.362840         0.068061         0.003038
 C         2.054558         0.807649         1.166224
 C         3.321885         1.062299         0.399174
 O         4.373985         1.420381         1.196439
 C         2.718714         2.079388        -0.546493
 C         2.091248         0.808202        -1.174468
 C         3.131760        -0.075614        -0.739429
 O         2.274895        -1.106008        -0.237527
 H        -0.195321        -0.510392         1.282678
 H        -0.701156         0.555503         0.045499
 H        -0.424436        -1.256305        -0.409769
 H         1.499372         1.600268         1.528011
 H         2.265641         0.079882         1.904559
 H         4.974276         2.113381         0.964736
 H         2.009736         2.802108        -0.121265
 H         3.391510         2.500582        -1.291866
 H         1.761263         0.705309        -2.269426
 H         3.884078        -0.222465        -1.508639
