19
Iteration:  1406charge 0 multiplicity 1
 C        -0.062017        -0.435555         0.260437
 C         1.372447        -0.002033         0.008048
 C         2.049823         0.768395         1.206391
 C         3.301239         1.129911         0.392623
 O         4.479478         1.574205         1.129950
 C         2.669723         2.121132        -0.538125
 C         1.999346         0.831143        -1.133312
 C         3.109545        -0.104594        -0.818360
 O         2.309056        -1.150622        -0.292676
 H        -0.050865        -1.093158         1.145097
 H        -0.676980         0.509471         0.607728
 H        -0.481214        -0.899458        -0.766782
 H         1.638099         1.738875         1.416938
 H         1.994584         0.183967         2.108151
 H         4.568338         0.992781         1.839404
 H         2.137319         3.082243        -0.228449
 H         3.526192         2.490625        -1.180966
 H         1.548165         0.772895        -2.152260
 H         3.857295        -0.503061        -1.531799
