19
Iteration:  2768
 C         0.004100        -0.545220         0.203527
 C         1.363511         0.016599         0.083048
 C         2.096192         0.646086         1.256957
 C         3.245976         1.151984         0.408551
 O         4.452003         1.488498         1.010274
 C         2.642530         2.124022        -0.595889
 C         1.898228         0.890163        -1.098163
 C         3.154055         0.064561        -0.742947
 O         2.341934        -1.019942        -0.239305
 H        -0.237771        -0.641211         1.295116
 H        -0.771124         0.240770        -0.121694
 H        -0.110533        -1.532495        -0.350281
 H         1.477529         1.176725         2.088390
 H         2.323873        -0.253655         1.726853
 H         4.931714         0.712319         1.112069
 H         1.994226         3.031196        -0.462448
 H         3.430185         2.482602        -1.308805
 H         1.365659         1.044525        -2.000214
 H         3.994601        -0.173686        -1.306493
