19
Iteration:  2603charge 0 multiplicity 1
 C        -0.059008        -0.536603         0.187374
 C         1.338449         0.008758         0.088044
 C         2.119884         0.701075         1.272861
 C         3.273418         1.124194         0.360638
 O         4.536586         1.527851         1.082214
 C         2.577427         2.108161        -0.607047
 C         1.916164         0.872345        -1.139421
 C         3.122571        -0.002042        -0.791396
 O         2.362992        -1.052380        -0.246594
 H        -0.213061        -1.198955         1.039625
 H        -0.678432         0.275374         0.466945
 H        -0.322211        -1.065923        -0.739468
 H         1.601837         1.676851         1.715383
 H         2.222581         0.062256         2.137362
 H         4.934153         0.637091         1.431211
 H         1.995998         2.926666        -0.175158
 H         3.322548         2.699342        -1.123301
 H         1.224784         1.059316        -1.993369
 H         4.011825        -0.233086        -1.396676
