19
Iteration:  1214
 C        -0.102673        -0.475838         0.104784
 C         1.328675         0.032568         0.064981
 C         2.084622         0.686559         1.286255
 C         3.316179         1.158626         0.408473
 O         4.500492         1.463509         1.038969
 C         2.689633         2.145949        -0.671018
 C         2.000104         0.843352        -1.158916
 C         3.149625         0.011840        -0.702008
 O         2.252702        -1.037394        -0.135506
 H        -0.150974        -1.093110         1.054106
 H        -0.856151         0.315427         0.162393
 H        -0.339470        -0.974232        -0.786275
 H         1.465547         1.436082         1.775472
 H         2.482386         0.019001         2.016226
 H         4.576207         0.756840         1.808083
 H         1.981140         2.885905        -0.379514
 H         3.525503         2.408585        -1.316684
 H         1.599905         0.787943        -2.266003
 H         4.027261        -0.435394        -1.323365
