19
Iteration:  3003charge 0 multiplicity 1
 C        -0.109866        -0.481405         0.240227
 C         1.411933        -0.074881         0.143095
 C         2.109594         0.596320         1.306908
 C         3.270429         1.170341         0.451027
 O         4.480940         1.521748         0.941030
 C         2.616287         2.131425        -0.573705
 C         1.942963         0.931912        -1.085758
 C         3.185023         0.066408        -0.802634
 O         2.357771        -1.112027        -0.327570
 H        -0.444679        -1.017294         1.206712
 H        -0.758915         0.476597         0.072463
 H        -0.227526        -1.090504        -0.735217
 H         1.496835         1.349613         1.834030
 H         2.292190        -0.129916         1.987087
 H         4.475330         1.587144         1.963237
 H         2.042396         3.029172        -0.376096
 H         3.316989         2.476094        -1.334895
 H         1.275842         0.772160        -1.948752
 H         3.959752        -0.335849        -1.451022
