19
Iteration:  3188charge 0 multiplicity 1
 C        -0.009161        -0.464666         0.206099
 C         1.395681        -0.019050         0.091603
 C         2.173589         0.644783         1.274722
 C         3.257722         1.164015         0.407931
 O         4.555633         1.491707         1.004484
 C         2.469832         2.100660        -0.584776
 C         1.899231         0.876797        -1.141881
 C         3.116542        -0.010873        -0.772231
 O         2.379422        -1.087633        -0.291510
 H        -0.325713        -0.741789         1.157858
 H        -0.672322         0.436023         0.176765
 H        -0.239454        -1.160042        -0.544471
 H         1.560345         1.412471         2.006188
 H         2.364864        -0.206938         2.015732
 H         4.286657         1.847966         1.818162
 H         1.784836         2.837441        -0.130816
 H         3.220639         2.687881        -1.155038
 H         1.314994         0.988805        -2.131090
 H         4.068870        -0.317580        -1.219637
