19
Iteration:  2770
 C         0.006106        -0.548801         0.214719
 C         1.358891         0.007316         0.068105
 C         2.104458         0.646088         1.243441
 C         3.235921         1.159111         0.427658
 O         4.442236         1.482820         0.998679
 C         2.660481         2.120552        -0.598017
 C         1.893941         0.888294        -1.079072
 C         3.147077         0.077707        -0.746102
 O         2.343146        -1.016104        -0.235306
 H        -0.196790        -0.657082         1.256574
 H        -0.783820         0.201914        -0.169756
 H        -0.155009        -1.455043        -0.347374
 H         1.435232         1.226247         2.131451
 H         2.360462        -0.298393         1.676903
 H         4.950163         0.722533         1.170089
 H         2.086515         3.047214        -0.472807
 H         3.417574         2.485305        -1.319044
 H         1.329242         0.979862        -2.007283
 H         4.063377        -0.160946        -1.312152
