19
Iteration:  4398charge 0 multiplicity 1
 C        -0.061040        -0.471661         0.215312
 C         1.368510        -0.016623         0.059401
 C         2.110540         0.644592         1.338061
 C         3.294129         1.161118         0.448109
 O         4.536201         1.375599         1.000504
 C         2.539168         2.189169        -0.665651
 C         1.848559         0.833705        -1.161627
 C         3.206585         0.074333        -0.837214
 O         2.379038        -1.054011        -0.196208
 H        -0.585844        -0.154903         1.175561
 H        -0.825779        -0.232186        -0.578854
 H        -0.224425        -1.482597         0.456050
 H         1.516268         1.506171         1.783422
 H         2.408020        -0.115736         2.045928
 H         4.555857         2.038395         1.672648
 H         1.984182         3.015377        -0.167219
 H         3.412630         2.463007        -1.306850
 H         1.223777         0.768631        -2.236722
 H         4.177645        -0.177875        -1.286153
