19
Iteration:   288charge 0 multiplicity 1
 C        -0.105269        -0.430726         0.148686
 C         1.368200         0.009824         0.084698
 C         1.995576         0.752485         1.205016
 C         3.267524         1.166136         0.446493
 O         4.393527         1.425296         1.186885
 C         2.794475         2.081032        -0.722642
 C         1.998885         0.831974        -1.094380
 C         3.150552         0.022088        -0.690268
 O         2.302742        -1.063440        -0.229922
 H        -0.269852        -1.276240         0.901024
 H        -0.691059         0.403170         0.589373
 H        -0.390442        -0.721015        -0.779617
 H         1.621047         1.743488         1.525680
 H         2.239399         0.053390         2.061817
 H         5.136885         0.873270         0.767093
 H         2.239879         2.949440        -0.385021
 H         3.585940         2.246565        -1.461930
 H         1.825407         0.746909        -2.268324
 H         3.872749        -0.246508        -1.591718
