19
Iteration:  1179
 C        -0.123407        -0.388029        -0.033253
 C         1.344939         0.001203         0.114773
 C         2.071810         0.794016         1.345438
 C         3.305582         1.048059         0.407813
 O         4.501105         1.512042         0.930933
 C         2.645943         2.049354        -0.540217
 C         1.955583         0.838806        -1.064561
 C         3.179942         0.006994        -0.660313
 O         2.319989        -1.112126        -0.175378
 H        -0.458163        -0.787093         0.857088
 H        -0.751982         0.491562        -0.319538
 H        -0.111556        -1.274263        -0.694777
 H         1.471678         1.635826         1.499655
 H         2.293134         0.286782         2.371682
 H         4.981704         0.863807         1.567001
 H         2.056817         2.951224        -0.354405
 H         3.370124         2.436052        -1.253903
 H         1.388682         0.794981        -2.044935
 H         4.015211        -0.248553        -1.361273
