19
Iteration:  3352
 C        -0.089158        -0.522695         0.167551
 C         1.334751         0.045494         0.060696
 C         2.229364         0.536823         1.324319
 C         3.250993         1.145032         0.398879
 O         4.524886         1.543328         0.964986
 C         2.521783         2.147312        -0.608953
 C         1.880770         0.854994        -1.154059
 C         3.182768         0.049686        -0.691426
 O         2.360196        -1.073816        -0.230375
 H        -0.292515        -0.558243         1.251574
 H        -0.743017         0.453009        -0.103190
 H        -0.082213        -1.444637        -0.428886
 H         1.803138         1.260743         1.921633
 H         2.512171        -0.317920         1.890597
 H         4.333388         1.420982         1.998793
 H         1.919534         3.055406        -0.356631
 H         3.411965         2.426993        -1.223944
 H         1.194139         1.052565        -2.119559
 H         4.006986        -0.186041        -1.365375
