19
Iteration:  2789charge 0 multiplicity 1
 C        -0.086129        -0.552937         0.232835
 C         1.350345        -0.029943         0.121149
 C         2.085002         0.626909         1.306744
 C         3.248948         1.150348         0.372450
 O         4.509614         1.505858         0.998387
 C         2.678329         2.184850        -0.587230
 C         1.873000         0.916583        -1.159626
 C         3.106423         0.080826        -0.728009
 O         2.406608        -1.089677        -0.305051
 H        -0.306669        -0.867415         1.302281
 H        -0.843220         0.274051         0.092881
 H        -0.126052        -1.473746        -0.443957
 H         1.473240         1.435643         1.687635
 H         2.290276         0.065362         2.182893
 H         4.587433         0.783241         1.679124
 H         2.276467         3.187205        -0.234199
 H         3.521354         2.430128        -1.309690
 H         1.485497         0.841689        -2.160682
 H         3.870572        -0.096597        -1.406622
