19
Iteration:  3391
 C        -0.019284        -0.548376         0.266608
 C         1.404950        -0.054457         0.047665
 C         2.048242         0.758698         1.205379
 C         3.293984         1.146978         0.435679
 O         4.534935         1.391719         1.017829
 C         2.522416         2.109862        -0.567366
 C         1.883217         0.955411        -1.106560
 C         3.155138         0.027206        -0.782561
 O         2.419697        -1.086593        -0.300006
 H        -0.226626        -0.930056         1.281784
 H        -0.678885         0.195020         0.027698
 H        -0.432081        -1.428486        -0.228121
 H         1.594998         1.860778         1.388790
 H         2.033938         0.227573         2.244333
 H         4.541510         1.993871         1.714446
 H         1.951589         2.871377        -0.041960
 H         3.200486         2.650450        -1.231790
 H         1.259768         0.834562        -1.930279
 H         3.984292        -0.155384        -1.515285
