19
Iteration:  1903
 C        -0.088876        -0.447917         0.117036
 C         1.405310        -0.071281         0.090912
 C         2.065730         0.735225         1.347160
 C         3.267632         1.135704         0.425863
 O         4.461494         1.524208         0.946691
 C         2.676644         2.075868        -0.581651
 C         1.884468         0.864832        -1.130412
 C         3.130129         0.049605        -0.704604
 O         2.413480        -1.115804        -0.244772
 H        -0.328771        -0.939232         1.091381
 H        -0.679409         0.430568         0.272859
 H        -0.475449        -0.992028        -0.757795
 H         1.445304         1.458013         1.635629
 H         2.399157        -0.023654         2.169923
 H         4.460398         1.211670         1.828323
 H         2.170653         2.910405        -0.082375
 H         3.444780         2.306242        -1.339563
 H         1.418300         0.936905        -2.193168
 H         4.014376        -0.183594        -1.443191
