19
Iteration:  4893charge 0 multiplicity 1
 C        -0.089309        -0.409614         0.264275
 C         1.339376         0.010258         0.083309
 C         2.140816         0.628253         1.277684
 C         3.293801         1.205820         0.391633
 O         4.577158         1.428651         0.921609
 C         2.462363         2.193017        -0.526475
 C         1.874334         0.757654        -1.120573
 C         3.151461         0.007961        -0.778999
 O         2.430510        -1.081652        -0.296164
 H        -0.728680         0.476594         0.216973
 H        -0.376540        -1.083252        -0.544988
 H        -0.249961        -0.901793         1.332436
 H         1.634753         1.402107         2.007510
 H         2.572122        -0.199485         1.959486
 H         4.427070         1.653875         1.879519
 H         1.681207         2.962246        -0.067990
 H         3.197303         2.800355        -1.132694
 H         1.495459         0.615210        -2.180901
 H         4.114557        -0.247315        -1.389779
