19
Iteration:  1913
 C        -0.071833        -0.425230         0.160891
 C         1.390057        -0.105931         0.116460
 C         2.052343         0.760084         1.238872
 C         3.287059         1.162180         0.402843
 O         4.482245         1.559358         0.995743
 C         2.619225         2.079130        -0.510395
 C         1.957153         0.859889        -1.083323
 C         3.169079        -0.027640        -0.790149
 O         2.338410        -1.120891        -0.276592
 H        -0.269665        -0.986543         1.157048
 H        -0.626740         0.508499        -0.012551
 H        -0.400790        -1.184884        -0.582466
 H         1.477923         1.457561         1.644432
 H         2.265438         0.105519         2.140153
 H         4.574261         1.134327         1.782822
 H         2.057122         2.983722        -0.174079
 H         3.368986         2.488203        -1.266451
 H         1.363248         0.872492        -2.069949
 H         4.182407        -0.269457        -1.363629
