19
Iteration:  1603charge 0 multiplicity 1
 C        -0.108341        -0.469429         0.074895
 C         1.369264         0.018325         0.155809
 C         2.079798         0.668723         1.350581
 C         3.234321         1.165796         0.400187
 O         4.516352         1.495718         0.946248
 C         2.670399         2.100875        -0.626894
 C         1.963156         0.845829        -1.102018
 C         3.147000         0.035514        -0.730949
 O         2.341947        -1.102712        -0.212442
 H        -0.332824        -1.178215         0.841964
 H        -0.619727         0.543728         0.082080
 H        -0.284452        -0.931369        -0.941593
 H         1.368033         1.495042         1.946695
 H         2.217897        -0.092692         2.230846
 H         4.523309         1.200363         1.875462
 H         2.123879         2.979847        -0.160709
 H         3.550975         2.308033        -1.302880
 H         1.391180         0.821255        -2.014097
 H         4.022246        -0.067457        -1.373137
