19
Iteration:  1055
 C        -0.031624        -0.510744         0.091225
 C         1.352139         0.052043         0.054328
 C         1.998605         0.858928         1.237152
 C         3.273848         1.153394         0.379904
 O         4.551030         1.374610         0.963342
 C         2.638939         2.139333        -0.582116
 C         2.031872         0.815848        -1.153436
 C         3.186897        -0.051109        -0.661906
 O         2.255333        -1.061231        -0.096278
 H        -0.132759        -1.361002         0.744076
 H        -0.680075         0.334847         0.375232
 H        -0.387469        -0.705921        -0.972813
 H         1.378173         1.719076         1.683178
 H         2.296053         0.065614         2.011590
 H         4.385555         1.386520         1.962583
 H         1.966016         3.030827        -0.251213
 H         3.456802         2.532593        -1.275473
 H         1.400320         0.711489        -2.025542
 H         3.969360        -0.468573        -1.317872
