19
Iteration:  1527
 C        -0.091961        -0.435388         0.230667
 C         1.379252        -0.041434         0.036817
 C         2.046493         0.655458         1.220224
 C         3.263844         1.141325         0.427694
 O         4.423331         1.531294         1.105681
 C         2.769607         2.099431        -0.675846
 C         1.929213         0.872854        -1.120522
 C         3.118703         0.048797        -0.731495
 O         2.344672        -1.077735        -0.258980
 H        -0.206031        -0.544176         1.270259
 H        -0.719516         0.497719         0.113841
 H        -0.119380        -1.378090        -0.402161
 H         1.511121         1.417541         1.888604
 H         2.429869        -0.168719         1.928766
 H         4.816890         0.704045         1.525907
 H         2.058890         2.931043        -0.375195
 H         3.559526         2.297178        -1.447349
 H         1.400407         0.798916        -2.085185
 H         3.952409        -0.145084        -1.427273
