19
Iteration:  2186
 C        -0.060284        -0.481560         0.222503
 C         1.382332         0.021397         0.064655
 C         2.082174         0.645771         1.273344
 C         3.264845         1.189729         0.412255
 O         4.495469         1.501635         1.018598
 C         2.635368         2.118451        -0.644117
 C         1.895639         0.853422        -1.130978
 C         3.178755         0.084829        -0.717937
 O         2.338417        -1.123307        -0.250387
 H        -0.280210        -0.966441         1.198330
 H        -0.723215         0.319904         0.115728
 H        -0.298625        -1.112801        -0.645529
 H         1.459928         1.440215         1.919567
 H         2.468412        -0.168476         1.868679
 H         4.562507         1.011935         1.939594
 H         1.972132         2.881170        -0.314955
 H         3.381061         2.518659        -1.314040
 H         1.545776         0.761541        -2.157934
 H         3.983462        -0.165489        -1.471814
