19
Iteration:  4710
 C        -0.053888        -0.463505         0.199810
 C         1.395191        -0.016989         0.130839
 C         2.017244         0.734043         1.246798
 C         3.315023         1.175510         0.415392
 O         4.603450         1.311333         0.888184
 C         2.529798         2.140024        -0.549387
 C         1.845406         0.877451        -1.071645
 C         3.182180         0.056449        -0.755641
 O         2.417616        -1.077129        -0.233428
 H        -0.819359         0.364278        -0.077959
 H        -0.360062        -1.315232        -0.476226
 H        -0.295522        -0.824186         1.341385
 H         1.380162         1.533234         1.637268
 H         2.391163        -0.083747         2.040977
 H         4.539607         1.945237         1.614938
 H         1.750034         2.877049        -0.222228
 H         2.967957         2.796196        -1.380744
 H         1.133936         0.908493        -1.977626
 H         4.174203        -0.238735        -1.187116
