19
Iteration:  4652charge 0 multiplicity 1
 C        -0.036834        -0.645852         0.295193
 C         1.347776         0.007329         0.112135
 C         2.101872         0.758039         1.246737
 C         3.345294         1.114876         0.377956
 O         4.543865         1.417280         1.003317
 C         2.675034         2.202680        -0.575825
 C         1.891828         0.922388        -1.149642
 C         3.092170         0.037026        -0.792992
 O         2.271799        -1.036780        -0.279178
 H        -0.713731         0.018561         0.803309
 H        -0.490360        -0.959986        -0.644158
 H         0.125364        -1.639988         0.978155
 H         1.590086         1.678286         1.551820
 H         2.270248         0.160201         2.083450
 H         4.337997         1.859591         1.897016
 H         2.023897         3.034007        -0.254393
 H         3.371776         2.435510        -1.341298
 H         1.568018         0.729709        -2.146722
 H         3.820643        -0.406498        -1.493210
