19
Iteration:   906charge 0 multiplicity 1
 C        -0.063672        -0.491255         0.018616
 C         1.349123         0.021122         0.082915
 C         2.041627         0.836839         1.263985
 C         3.325340         1.183298         0.343411
 O         4.556053         1.274216         1.005418
 C         2.627523         2.237143        -0.672099
 C         1.960904         0.809111        -1.111696
 C         3.165949        -0.031461        -0.608906
 O         2.286788        -1.090859        -0.070720
 H        -0.230004        -1.430391         0.408453
 H        -0.859713         0.212706         0.468076
 H        -0.316226        -0.721799        -1.109239
 H         1.447307         1.876941         1.599000
 H         2.207582         0.241353         2.253965
 H         4.508159         1.958582         1.621627
 H         2.066101         2.909364        -0.040955
 H         3.232512         2.617983        -1.503194
 H         1.498498         0.619643        -2.063205
 H         4.041613        -0.251266        -1.191393
