19
Iteration:  4887charge 0 multiplicity 1
 C        -0.082761        -0.494944         0.266892
 C         1.348844         0.038352         0.104010
 C         2.141799         0.642995         1.309354
 C         3.289873         1.142238         0.378138
 O         4.571486         1.448478         0.926263
 C         2.503421         2.222131        -0.539594
 C         1.904123         0.815221        -1.151192
 C         3.159888         0.052856        -0.783486
 O         2.400183        -1.104655        -0.265266
 H        -0.703002         0.432973         0.289316
 H        -0.436856        -1.075945        -0.601897
 H        -0.341046        -0.822778         1.205302
 H         1.673540         1.391827         1.845366
 H         2.337610        -0.152445         2.007701
 H         4.637103         1.493244         1.842924
 H         1.607862         2.666538        -0.255066
 H         3.204680         2.742449        -1.175772
 H         1.374542         0.707408        -2.071044
 H         3.883891        -0.158163        -1.491363
