19
Iteration:   789charge 0 multiplicity 1
 C        -0.160761        -0.382770         0.070594
 C         1.315923         0.044518         0.052558
 C         2.052615         0.700887         1.317365
 C         3.243914         1.153075         0.466489
 O         4.579940         1.392835         1.010268
 C         2.646319         2.106256        -0.709076
 C         2.006594         0.801494        -1.166014
 C         3.138246        -0.002481        -0.635338
 O         2.358329        -1.067342        -0.191043
 H        -0.270670        -0.705008         1.274351
 H        -0.769429         0.521682        -0.260580
 H        -0.293083        -1.279514        -0.479759
 H         1.539606         1.402032         1.886964
 H         2.281365        -0.069165         1.999046
 H         4.395983         1.769702         1.899287
 H         1.975501         2.921477        -0.360094
 H         3.492581         2.368896        -1.392170
 H         1.604879         0.674690        -2.151694
 H         4.077924        -0.114117        -1.096703
