19
Iteration:   965charge 0 multiplicity 1
 C        -0.146586        -0.401020         0.225235
 C         1.374001        -0.029302        -0.017921
 C         2.084057         0.735556         1.216014
 C         3.291906         1.216879         0.440580
 O         4.498966         1.460071         1.100300
 C         2.693384         2.019227        -0.597158
 C         2.026163         0.828440        -1.183420
 C         3.131224        -0.089914        -0.697801
 O         2.298320        -1.117664        -0.274619
 H        -0.319970        -0.704690         1.364373
 H        -0.646952         0.516124         0.075456
 H        -0.456220        -1.157823        -0.409349
 H         1.383208         1.675985         1.315306
 H         2.355696         0.294044         2.144652
 H         4.333188         2.236696         1.812399
 H         2.162145         2.952795        -0.184196
 H         3.418877         2.670634        -1.258176
 H         1.493061         0.861935        -2.186837
 H         4.031625        -0.441976        -1.325829
