19
Iteration:  3510charge 0 multiplicity 1
 C        -0.007311        -0.424901         0.228902
 C         1.355891         0.019065         0.086781
 C         2.158916         0.609730         1.292239
 C         3.241358         1.246053         0.427645
 O         4.473253         1.477974         1.006686
 C         2.486518         2.109043        -0.681966
 C         1.906291         0.830735        -1.190117
 C         3.216749         0.045742        -0.709416
 O         2.366355        -1.119300        -0.248746
 H        -0.041113        -1.474318         0.767554
 H        -0.437024         0.348170         0.883514
 H        -0.766810        -0.642609        -0.624643
 H         1.626451         1.295843         2.040221
 H         2.553101        -0.178285         1.897728
 H         4.338726         1.553122         1.997976
 H         2.044224         3.112016        -0.458376
 H         3.274212         2.367175        -1.438102
 H         1.532871         0.753261        -2.147330
 H         4.099046        -0.343013        -1.312164
