19
Iteration:   208
 C        -0.118149        -0.326097        -0.010441
 C         1.371799         0.033380         0.094244
 C         1.970289         0.626448         1.325497
 C         3.307982         1.166586         0.498168
 O         4.586520         1.352922         1.046324
 C         2.632672         2.069781        -0.679007
 C         1.980375         0.808983        -1.113221
 C         3.147098         0.002913        -0.648768
 O         2.334599        -1.059226        -0.158546
 H        -0.533161        -0.618509         0.924951
 H        -0.638384         0.642031        -0.288272
 H        -0.571422        -1.078952        -0.755225
 H         1.443359         1.392242         1.808886
 H         2.186824        -0.156848         1.972118
 H         4.723746         2.350547         0.946349
 H         2.094732         3.019795        -0.494741
 H         3.447092         2.330207        -1.365248
 H         1.583266         0.731728        -2.122259
 H         3.984368        -0.152284        -1.228970
