19
Iteration:  2751charge 0 multiplicity 1
 C        -0.056819        -0.499709         0.213395
 C         1.345821         0.005686         0.094255
 C         2.110359         0.653291         1.315231
 C         3.289399         1.156261         0.417915
 O         4.520995         1.507117         1.058557
 C         2.529654         2.168365        -0.560241
 C         1.957111         0.906259        -1.191651
 C         3.120245        -0.004331        -0.789317
 O         2.352121        -1.086818        -0.264151
 H        -0.317852        -0.810820         1.205237
 H        -0.809481         0.067368        -0.315536
 H        -0.136625        -1.316288        -0.464200
 H         1.635818         1.645937         1.567150
 H         2.407091        -0.034407         2.195280
 H         5.109723         0.827652         1.063712
 H         1.972185         2.899320         0.017054
 H         3.102032         2.837291        -1.216105
 H         1.426940         0.630136        -2.149524
 H         4.048398        -0.341447        -1.417949
