19
Iteration:   168charge 0 multiplicity 1
 C        -0.045480        -0.399922        -0.029633
 C         1.328433         0.019545         0.098380
 C         1.978850         0.787710         1.272745
 C         3.342170         1.117330         0.366797
 O         4.608890         1.378459         1.024755
 C         2.653218         2.122771        -0.600216
 C         2.020656         0.846489        -1.112597
 C         3.170159        -0.067777        -0.687519
 O         2.216621        -1.077997        -0.099883
 H        -0.210914        -1.185201         0.748440
 H        -0.658834         0.442255         0.300688
 H        -0.208559        -0.641576        -1.013144
 H         1.409970         1.736507         1.502490
 H         2.012184         0.160077         2.224583
 H         4.485242         1.756612         1.892234
 H         1.920291         2.785300        -0.157050
 H         3.285901         2.632101        -1.331040
 H         1.437491         0.741470        -2.094164
 H         3.907065        -0.601084        -1.375384
