19
Iteration:   209charge 0 multiplicity 1
 C        -0.124815        -0.329572        -0.002407
 C         1.380106         0.027239         0.096865
 C         1.964301         0.625106         1.316539
 C         3.306646         1.155677         0.500027
 O         4.587867         1.355830         1.050211
 C         2.629322         2.074187        -0.682026
 C         1.983525         0.820142        -1.111122
 C         3.148162        -0.007590        -0.643392
 O         2.335385        -1.056223        -0.166210
 H        -0.538311        -0.585870         0.939997
 H        -0.635069         0.623979        -0.294250
 H        -0.537200        -1.029833        -0.726766
 H         1.418677         1.391980         1.774123
 H         2.184726        -0.148445         1.992455
 H         4.756984         2.380592         0.941893
 H         2.088754         3.013536        -0.519172
 H         3.429102         2.325176        -1.381491
 H         1.556008         0.763232        -2.145460
 H         4.020299        -0.167974        -1.219252
