19
Iteration:  2658
 C        -0.046576        -0.528172         0.285720
 C         1.343799        -0.030290         0.035817
 C         2.076707         0.770420         1.269290
 C         3.305937         1.156657         0.397317
 O         4.559167         1.513946         1.054291
 C         2.597474         2.099894        -0.505095
 C         1.949347         0.824460        -1.173657
 C         3.105927        -0.010427        -0.861692
 O         2.337797        -1.082035        -0.274917
 H         0.145414        -1.542177         0.599466
 H        -0.599291         0.121110         0.885655
 H        -0.628029        -0.441714        -0.624896
 H         1.409005         1.723226         1.383717
 H         2.185905         0.064412         2.031397
 H         4.282679         1.409849         2.070169
 H         2.053258         2.894259         0.051867
 H         3.194283         2.530458        -1.316696
 H         1.692787         0.973514        -2.215803
 H         3.884642        -0.281831        -1.522850
