19
Iteration:  4314
 C        -0.061363        -0.533502         0.163293
 C         1.359390        -0.015400         0.116151
 C         2.190867         0.671413         1.284142
 C         3.273396         1.195563         0.376347
 O         4.478157         1.471762         0.956868
 C         2.568676         2.105928        -0.646662
 C         1.928596         0.903310        -1.082037
 C         3.127736        -0.035524        -0.704565
 O         2.314487        -1.054870        -0.216415
 H        -0.149918        -0.627958         1.239754
 H        -0.795752         0.286150        -0.130374
 H        -0.196452        -1.438176        -0.503953
 H         1.608927         1.518812         1.817746
 H         2.572747        -0.024496         2.017053
 H         4.547937         1.650524         1.926520
 H         2.077163         3.093542        -0.464663
 H         3.367894         2.515595        -1.274588
 H         1.491112         0.945937        -2.057858
 H         4.101290        -0.340622        -1.312474
