19
Iteration:   752
 C        -0.061516        -0.482702        -0.023386
 C         1.321403         0.106682         0.121133
 C         2.005987         0.865900         1.263668
 C         3.320361         1.095822         0.405117
 O         4.555268         1.336117         0.969758
 C         2.663982         2.109091        -0.604521
 C         1.965427         0.883641        -1.082696
 C         3.090649        -0.081965        -0.694695
 O         2.380503        -1.125915        -0.092928
 H        -0.317779        -0.984913         0.931203
 H        -0.914900         0.289701         0.043626
 H        -0.378267        -1.112764        -1.028368
 H         1.439906         1.848020         1.374883
 H         2.148984         0.128135         2.105924
 H         4.400254         1.997201         1.762665
 H         2.098670         2.908743        -0.038668
 H         3.351808         2.693892        -1.241088
 H         1.421189         0.908690        -2.076903
 H         4.068455        -0.255509        -1.286524
