19
Iteration:  1160
 C        -0.112850        -0.373755         0.062875
 C         1.351152         0.001008         0.097155
 C         2.018514         0.636088         1.305249
 C         3.246990         1.241785         0.470136
 O         4.550482         1.532856         0.974380
 C         2.682937         2.147429        -0.661953
 C         1.957467         0.793847        -1.135433
 C         3.156084        -0.006032        -0.675454
 O         2.319163        -1.148591        -0.158100
 H        -0.627180        -0.737007         1.109126
 H        -0.458846         0.641254        -0.223013
 H        -0.278085        -1.076849        -0.721029
 H         1.486914         1.372481         1.935625
 H         2.254203        -0.158682         1.873217
 H         4.740477         0.597499         1.432199
 H         2.114530         2.989940        -0.281250
 H         3.539327         2.426372        -1.304194
 H         1.479200         0.665253        -2.199672
 H         4.188892        -0.393552        -1.042058
