19
Iteration:  2163charge 0 multiplicity 1
 C        -0.067360        -0.533355         0.088020
 C         1.372221         0.020891         0.094333
 C         2.138610         0.625513         1.315227
 C         3.253730         1.190726         0.416000
 O         4.520790         1.435575         0.948183
 C         2.548234         2.194186        -0.613550
 C         1.921546         0.892342        -1.152692
 C         3.146096         0.008164        -0.679217
 O         2.361606        -1.018501        -0.165623
 H        -0.357281        -0.801631         1.123231
 H        -0.815997         0.198442        -0.269522
 H        -0.130312        -1.355481        -0.624323
 H         1.564933         1.549740         1.875290
 H         2.549129        -0.095761         2.016106
 H         4.667350         0.982943         1.717533
 H         1.939400         2.995297        -0.227079
 H         3.322013         2.581303        -1.282628
 H         1.352532         0.801259        -2.106606
 H         3.992946        -0.550860        -1.173887
