19
Iteration:  4935charge 0 multiplicity 1
 C        -0.088791        -0.358640         0.270717
 C         1.427864        -0.036653         0.130489
 C         2.142451         0.592521         1.325076
 C         3.237719         1.106747         0.410155
 O         4.522701         1.529848         0.998740
 C         2.542178         2.122001        -0.503792
 C         1.929308         0.845720        -1.149569
 C         3.087764        -0.017544        -0.857428
 O         2.424055        -1.106622        -0.349711
 H        -0.766740         0.468134         0.465891
 H        -0.405417        -0.938192        -0.583748
 H        -0.276008        -0.992779         1.213994
 H         1.471036         1.328908         1.906677
 H         2.404025        -0.179408         2.054295
 H         4.679456         2.558234         1.048886
 H         2.001384         2.895392         0.117498
 H         3.185448         2.452701        -1.303514
 H         1.222986         0.648853        -2.027868
 H         3.959036        -0.314569        -1.601517
