19
Iteration:   670
 C        -0.118608        -0.352607         0.166139
 C         1.348026        -0.007611         0.018162
 C         2.027374         0.786230         1.194802
 C         3.304361         1.065894         0.393760
 O         4.521805         1.489805         1.118019
 C         2.704403         2.120035        -0.608221
 C         1.974722         0.831736        -1.097667
 C         3.178598        -0.099075        -0.714508
 O         2.312633        -1.166102        -0.248891
 H        -0.223396        -1.213707         0.878380
 H        -0.682256         0.467441         0.568441
 H        -0.422418        -0.781960        -0.714731
 H         1.383088         1.695042         1.523198
 H         2.016701         0.171288         2.098163
 H         4.311567         2.240610         1.811964
 H         2.229888         2.993541        -0.168708
 H         3.359199         2.403560        -1.444579
 H         1.630210         0.912617        -2.142556
 H         3.982688        -0.459205        -1.357432
