19
Iteration:  3569
 C        -0.000947        -0.633441         0.236089
 C         1.327965         0.034813         0.163883
 C         2.055095         0.675148         1.246563
 C         3.265167         1.212784         0.394421
 O         4.518717         1.488209         0.988491
 C         2.636328         2.156222        -0.642135
 C         1.977429         0.889400        -1.159468
 C         3.092864         0.055300        -0.709976
 O         2.317317        -1.046131        -0.250936
 H        -0.156102        -0.755347         1.304745
 H        -0.827069         0.048114        -0.097955
 H         0.002627        -1.479537        -0.369258
 H         1.418751         1.514713         1.659851
 H         2.412755        -0.103736         2.115895
 H         4.705718         0.767396         1.526242
 H         1.980007         2.939093        -0.268891
 H         3.407763         2.494647        -1.346816
 H         1.451222         0.783397        -2.193307
 H         3.938500        -0.202169        -1.297918
