19
Iteration:   597charge 0 multiplicity 1
 C        -0.120452        -0.460796         0.107768
 C         1.360702         0.013164         0.075031
 C         1.938784         0.817998         1.290868
 C         3.299011         1.105080         0.383955
 O         4.581882         1.339110         1.015308
 C         2.633359         2.138649        -0.567135
 C         2.013222         0.863751        -1.179487
 C         3.205253        -0.029458        -0.676675
 O         2.334052        -1.071874        -0.196943
 H        -0.589741        -0.807452         0.967803
 H        -0.698922         0.411266        -0.061042
 H        -0.359312        -1.372841        -0.617772
 H         1.478909         1.767981         1.378493
 H         1.996256         0.465993         2.283849
 H         4.466342         1.762290         1.867722
 H         2.063646         2.990213        -0.244109
 H         3.356617         2.393945        -1.346145
 H         1.596674         0.876619        -2.138611
 H         4.041652        -0.399208        -1.207692
