19
Iteration:  1769charge 0 multiplicity 1
 C        -0.070150        -0.359856         0.162389
 C         1.384626        -0.011626         0.068776
 C         2.043105         0.669081         1.183689
 C         3.303253         1.145576         0.442128
 O         4.520961         1.554466         0.989194
 C         2.604535         2.083398        -0.490293
 C         1.914693         0.819157        -1.147282
 C         3.159466         0.029915        -0.749858
 O         2.367812        -1.172708        -0.199618
 H        -0.299890        -0.798514         1.145880
 H        -0.743758         0.433408        -0.191573
 H        -0.202535        -1.115926        -0.570295
 H         1.420994         1.533142         1.422754
 H         2.108338         0.103396         2.170411
 H         4.704325         0.853413         1.604891
 H         1.900502         2.734958         0.056551
 H         3.186511         2.579473        -1.286680
 H         1.583032         1.035773        -2.082618
 H         4.010785        -0.221360        -1.349597
