19
Iteration:  3132
 C         0.009602        -0.538289         0.201248
 C         1.356820         0.026225         0.061075
 C         2.137913         0.591958         1.323025
 C         3.225052         1.178166         0.447995
 O         4.523056         1.388542         0.971714
 C         2.560350         2.186565        -0.624022
 C         1.923020         0.848776        -1.138709
 C         3.132105         0.097724        -0.744285
 O         2.319352        -1.029445        -0.223378
 H        -0.046273        -1.130684         1.073475
 H        -0.637690         0.366009         0.220485
 H        -0.120944        -1.193394        -0.569380
 H         1.465434         1.329960         1.937423
 H         2.419159        -0.415476         1.835193
 H         4.611714         2.269806         1.298180
 H         1.862319         2.894567        -0.176228
 H         3.369232         2.656489        -1.198925
 H         1.437456         0.637389        -2.105645
 H         3.980280        -0.101658        -1.416782
