19
Iteration:  4965
 C        -0.038164        -0.580710         0.242147
 C         1.386149         0.007332         0.099974
 C         2.142015         0.618610         1.303484
 C         3.338504         1.125855         0.354503
 O         4.523227         1.516734         1.050419
 C         2.584022         2.232622        -0.542954
 C         1.914581         0.892982        -1.128766
 C         3.071529         0.005338        -0.755045
 O         2.265707        -1.069112        -0.281554
 H        -0.777526         0.132748         0.680567
 H        -0.502362        -0.953565        -0.687805
 H        -0.003585        -1.445120         0.840623
 H         1.626370         1.366993         1.860414
 H         2.503184        -0.122845         1.944967
 H         5.072602         2.023811         0.439413
 H         2.204818         3.114403        -0.095329
 H         3.170570         2.604575        -1.407644
 H         1.428730         0.599989        -2.052737
 H         3.825926        -0.351476        -1.510799
