19
Iteration:  4309
 C        -0.076649        -0.514703         0.162337
 C         1.384550        -0.006690         0.123811
 C         2.181387         0.670385         1.272841
 C         3.279360         1.195016         0.398775
 O         4.482891         1.483072         0.968786
 C         2.559759         2.108147        -0.647246
 C         1.911839         0.919960        -1.101472
 C         3.161631        -0.045490        -0.736561
 O         2.317025        -1.069447        -0.199079
 H        -0.294974        -0.764619         1.243101
 H        -0.585968         0.415192        -0.057534
 H        -0.248136        -1.361269        -0.466459
 H         1.634813         1.482759         1.746624
 H         2.546787        -0.126281         1.972831
 H         4.588614         1.619650         1.896899
 H         1.891681         2.939071        -0.342721
 H         3.306269         2.521302        -1.356773
 H         1.501257         0.828078        -2.179086
 H         3.995442        -0.337807        -1.256752
