19
Iteration:  4144charge 0 multiplicity 1
 C        -0.092819        -0.424631         0.202554
 C         1.381001        -0.033538         0.088694
 C         2.163388         0.710709         1.243223
 C         3.314495         1.139679         0.369209
 O         4.509328         1.541354         0.981959
 C         2.572815         2.113027        -0.586596
 C         1.867041         0.805077        -1.115242
 C         3.136327        -0.042273        -0.729317
 O         2.384411        -1.094826        -0.245813
 H        -0.360970        -0.573199         1.207537
 H        -0.701494         0.370987        -0.128352
 H        -0.187906        -1.371017        -0.282822
 H         1.528081         1.520952         1.408059
 H         2.365294        -0.109959         2.021391
 H         4.366072         1.512123         2.015043
 H         2.012039         2.718688         0.105657
 H         3.109863         2.769243        -1.282757
 H         1.377208         0.905233        -2.079958
 H         4.048880        -0.351273        -1.251426
