19
Iteration:   683
 C        -0.081937        -0.395424         0.246619
 C         1.354187         0.037096        -0.001105
 C         1.960967         0.688809         1.171795
 C         3.357621         1.109425         0.420818
 O         4.480913         1.460744         1.125352
 C         2.726678         2.054696        -0.634943
 C         2.026890         0.874075        -1.223789
 C         3.201159        -0.096372        -0.670336
 O         2.268059        -1.084956        -0.236378
 H        -0.089244        -1.172595         0.898700
 H        -0.492898         0.468060         0.749604
 H        -0.651364        -0.589816        -0.674703
 H         1.506537         1.739660         1.421049
 H         2.148776         0.046767         2.060178
 H         4.155213         2.234665         1.568658
 H         2.002910         2.728365        -0.246120
 H         3.390724         2.636743        -1.239605
 H         1.403843         0.792680        -2.079333
 H         4.057771        -0.420583        -1.204073
