19
Iteration:  2350
 C        -0.075833        -0.446177         0.315901
 C         1.368232        -0.047526         0.006468
 C         2.078534         0.745222         1.287914
 C         3.323714         1.114082         0.402077
 O         4.444787         1.582323         1.094443
 C         2.631194         2.088468        -0.543957
 C         1.924359         0.806454        -1.148685
 C         3.202565         0.020146        -0.834241
 O         2.340007        -1.095855        -0.332418
 H        -0.278733        -0.693154         1.403263
 H        -0.718805         0.164527        -0.188822
 H        -0.291742        -1.390730        -0.270222
 H         1.542873         1.561826         1.785334
 H         2.213798        -0.002410         1.944198
 H         4.743473         0.888417         1.589469
 H         2.043622         2.941138        -0.253159
 H         3.396806         2.487803        -1.175450
 H         1.316307         0.812432        -2.055943
 H         4.001837        -0.162454        -1.611399
