19
Iteration:  3462
 C        -0.049609        -0.513612         0.145663
 C         1.343887        -0.067799         0.080044
 C         2.096799         0.753958         1.235630
 C         3.318967         1.086838         0.453950
 O         4.578527         1.522564         0.919995
 C         2.596282         2.142458        -0.549010
 C         1.871668         0.870189        -1.068923
 C         3.112214         0.009279        -0.716856
 O         2.396286        -1.116849        -0.202221
 H        -0.075163        -1.575581         0.296092
 H        -0.734945         0.055249         0.915660
 H        -0.640244        -0.478055        -0.772605
 H         1.504042         1.541376         1.459167
 H         2.148209         0.142237         2.096738
 H         4.332518         2.008612         1.680021
 H         1.857342         2.851988        -0.155877
 H         3.191185         2.693560        -1.272331
 H         1.380652         0.815372        -2.121217
 H         3.926639        -0.173198        -1.388255
