19
Iteration:  2265charge 0 multiplicity 1
 C        -0.105443        -0.479139         0.137778
 C         1.390664        -0.009124         0.089627
 C         2.116565         0.654316         1.285401
 C         3.253100         1.153322         0.406703
 O         4.488267         1.544311         0.951429
 C         2.636970         2.158673        -0.599223
 C         1.958939         0.849103        -1.114029
 C         3.077668        -0.007146        -0.700428
 O         2.368100        -1.064593        -0.188418
 H        -0.110919        -1.518234         0.522366
 H        -0.697221         0.102672         0.827070
 H        -0.475181        -0.547648        -0.894500
 H         1.443506         1.541865         1.726923
 H         2.407404        -0.028413         2.118615
 H         4.728574         0.833156         1.703303
 H         1.968643         2.971177        -0.291083
 H         3.440953         2.414586        -1.288654
 H         1.617672         0.693111        -2.151198
 H         3.991094        -0.216449        -1.363742
