19
Iteration:  3878charge 0 multiplicity 1
 C         0.012647        -0.597871         0.156769
 C         1.334213         0.010098         0.210020
 C         2.038973         0.711271         1.324641
 C         3.175785         1.222507         0.422035
 O         4.519080         1.330077         0.925072
 C         2.606413         2.162385        -0.662655
 C         1.917045         0.898029        -1.146039
 C         3.148947         0.049788        -0.728199
 O         2.365714        -1.004124        -0.169988
 H         0.209901        -1.581140         0.576007
 H        -0.890199        -0.073101         0.575264
 H        -0.495400        -0.893845        -0.741540
 H         1.513674         1.444489         1.789948
 H         2.526538        -0.015754         2.075902
 H         4.945430         2.247857         1.066171
 H         2.194215         3.142114        -0.361773
 H         3.269850         2.352741        -1.501376
 H         1.533273         0.768890        -2.157985
 H         4.181362        -0.328642        -1.128686
