19
Iteration:   592
 C        -0.124450        -0.465097         0.120766
 C         1.330040         0.029501         0.075171
 C         1.949684         0.763356         1.280113
 C         3.277223         1.130152         0.390222
 O         4.576423         1.348896         1.032549
 C         2.681240         2.167437        -0.600782
 C         2.008270         0.837238        -1.151051
 C         3.204374        -0.021151        -0.654182
 O         2.329278        -1.094544        -0.227023
 H        -0.336483        -0.826427         1.220987
 H        -0.754043         0.440661        -0.133406
 H        -0.268564        -1.163500        -0.638782
 H         1.504756         1.863577         1.185046
 H         1.951853         0.319959         2.331139
 H         4.434786         1.889160         1.895348
 H         2.057701         3.050239        -0.327728
 H         3.507266         2.353300        -1.310389
 H         1.404413         0.837863        -2.138509
 H         4.054558        -0.388653        -1.306433
