19
Iteration:  3137
 C         0.006515        -0.491003         0.219579
 C         1.364685         0.024688         0.045975
 C         2.092514         0.578337         1.342196
 C         3.217704         1.166397         0.461671
 O         4.536090         1.387952         0.965611
 C         2.558221         2.165819        -0.597369
 C         1.900310         0.863599        -1.185283
 C         3.150904         0.117301        -0.751914
 O         2.362509        -1.063252        -0.234338
 H        -0.393807        -1.107974         1.169555
 H        -0.634887         0.405765         0.308978
 H        -0.083407        -1.380038        -0.614067
 H         1.551956         1.245940         1.991052
 H         2.504248        -0.199151         1.899270
 H         4.516871         2.379875         1.320537
 H         1.944643         2.995334        -0.142325
 H         3.277342         2.660797        -1.298619
 H         1.430362         0.620560        -2.166507
 H         3.979028        -0.167395        -1.400855
