19
Iteration:  3087charge 0 multiplicity 1
 C        -0.041260        -0.585713         0.199966
 C         1.371384        -0.043500         0.121897
 C         1.963761         0.703079         1.220270
 C         3.302610         1.170703         0.415544
 O         4.568742         1.388212         0.971554
 C         2.639027         2.143972        -0.543972
 C         1.882153         0.917808        -1.092657
 C         3.083876         0.087975        -0.780015
 O         2.419160        -1.037968        -0.237042
 H         0.042603        -1.579454         0.556107
 H        -0.599488         0.035032         0.942978
 H        -0.496491        -0.732196        -0.705151
 H         1.417521         1.725011         1.368568
 H         2.322791         0.100888         2.243157
 H         4.454846         1.994644         1.727630
 H         2.036394         3.011729        -0.270190
 H         3.340044         2.295138        -1.389142
 H         1.377090         0.780262        -2.006489
 H         3.843617        -0.215621        -1.525500
