19
Iteration:  4982
 C        -0.005362        -0.595839         0.258269
 C         1.316897         0.016719         0.157590
 C         2.139906         0.709104         1.287909
 C         3.218195         1.207805         0.396924
 O         4.504983         1.434286         1.054706
 C         2.617788         2.118150        -0.625266
 C         1.869421         0.934407        -1.101236
 C         3.118088         0.019287        -0.856598
 O         2.354002        -1.047417        -0.264639
 H        -0.746587        -0.011403         0.814777
 H        -0.274467        -0.788013        -0.800517
 H         0.156741        -1.556962         0.833442
 H         1.665196         1.554677         1.867298
 H         2.373828        -0.149207         2.051330
 H         5.212082         1.314762         0.374245
 H         1.801503         2.756425        -0.184224
 H         3.454303         2.570160        -1.208441
 H         1.264085         1.151076        -1.986063
 H         4.004158        -0.189861        -1.422392
