19
Iteration:  3218charge 0 multiplicity 1
 C        -0.029427        -0.579240         0.211149
 C         1.357063        -0.027323         0.121558
 C         2.084204         0.657102         1.263213
 C         3.269221         1.169858         0.367385
 O         4.536413         1.503771         0.931044
 C         2.621938         2.177375        -0.613754
 C         1.892644         0.895621        -1.110543
 C         3.121241         0.076408        -0.706364
 O         2.343513        -1.081754        -0.229425
 H        -0.082124        -1.354018         1.001983
 H        -0.828553         0.171943         0.455605
 H        -0.446246        -0.860580        -0.750760
 H         1.639803         1.390272         1.806239
 H         2.426361        -0.216489         1.959461
 H         4.202388         1.268730         1.917322
 H         2.159453         3.015064        -0.115751
 H         3.426506         2.458963        -1.277761
 H         1.551463         0.871109        -2.144416
 H         4.029508        -0.176637        -1.287859
