19
Iteration:   610charge 0 multiplicity 1
 C        -0.116488        -0.450468         0.049772
 C         1.337312        -0.020791         0.076600
 C         2.008061         0.885117         1.244455
 C         3.293370         1.136822         0.454763
 O         4.571765         1.298236         0.960572
 C         2.625746         2.097809        -0.571098
 C         1.988846         0.849801        -1.177303
 C         3.155604        -0.013113        -0.683316
 O         2.350478        -1.036661        -0.094055
 H        -0.338207        -0.744360         1.061113
 H        -0.680387         0.383125        -0.428606
 H        -0.201669        -1.204791        -0.831232
 H         1.435131         1.687011         1.499072
 H         2.199085         0.094530         1.939577
 H         4.486712         1.574990         1.944409
 H         1.895672         2.730075        -0.004904
 H         3.239035         2.737557        -1.230467
 H         1.603642         0.786792        -2.164518
 H         4.058941        -0.304645        -1.184260
