19
Iteration:  2860
 C        -0.147201        -0.452795         0.213315
 C         1.418833        -0.056807         0.078158
 C         2.080922         0.605513         1.280273
 C         3.279049         1.193370         0.435492
 O         4.529140         1.534786         0.956140
 C         2.600160         2.120435        -0.592261
 C         1.895478         0.870793        -1.118763
 C         3.100105         0.100233        -0.747169
 O         2.410656        -1.134430        -0.287357
 H        -0.277704        -1.448771         0.626746
 H        -0.481014         0.156872         1.018645
 H        -0.569588        -0.472249        -0.752292
 H         1.469173         1.359716         1.988425
 H         2.404732        -0.098011         2.071080
 H         4.472236         1.343073         1.941788
 H         2.148824         3.083354        -0.381691
 H         3.495886         2.346405        -1.198478
 H         1.455935         0.643382        -2.118204
 H         4.076695        -0.131953        -1.306159
