19
Iteration:  1775
 C        -0.027453        -0.365320         0.170460
 C         1.411541        -0.021709         0.050227
 C         2.049255         0.704471         1.172480
 C         3.318959         1.101075         0.433957
 O         4.512211         1.574929         1.051404
 C         2.534740         2.077414        -0.505338
 C         1.920926         0.845025        -1.178611
 C         3.158759        -0.024119        -0.771924
 O         2.326294        -1.158208        -0.182758
 H        -0.233110        -0.886182         1.121508
 H        -0.705623         0.542516        -0.047746
 H        -0.175175        -1.233122        -0.613399
 H         1.482989         1.622489         1.559118
 H         2.275991         0.176473         2.086050
 H         4.860382         0.717123         1.622398
 H         2.009606         2.920323         0.018197
 H         3.199987         2.679337        -1.158584
 H         1.443906         1.040423        -2.267829
 H         3.983143        -0.295836        -1.483741
