19
Iteration:   444
 C        -0.156970        -0.440357         0.143793
 C         1.359152         0.056006         0.063122
 C         2.029918         0.844820         1.260933
 C         3.277516         1.097405         0.414693
 O         4.494602         1.340730         1.057129
 C         2.711075         2.123928        -0.572636
 C         1.965261         0.781441        -1.144392
 C         3.128298        -0.001793        -0.751678
 O         2.416356        -1.081004        -0.223226
 H        -0.343011        -0.858434         1.114770
 H        -0.852890         0.299268        -0.168351
 H        -0.322133        -1.238250        -0.708963
 H         1.348550         1.736149         1.418164
 H         2.166355         0.278169         2.187766
 H         4.373942         1.609893         1.916708
 H         2.160385         3.040856        -0.233661
 H         3.570285         2.431121        -1.206223
 H         1.442989         0.887901        -2.058942
 H         4.072864        -0.134287        -1.381269
