19
Iteration:  1932
 C        -0.033954        -0.433593         0.207085
 C         1.375932         0.054985         0.040395
 C         2.131261         0.625893         1.267167
 C         3.370242         1.140975         0.417167
 O         4.491897         1.599342         1.116108
 C         2.567187         2.155913        -0.616463
 C         1.935757         0.840689        -1.217129
 C         3.140108        -0.063030        -0.704214
 O         2.300564        -1.126236        -0.279249
 H        -0.159355        -0.686667         1.334281
 H        -0.896489         0.254967        -0.121379
 H        -0.272929        -1.339138        -0.380254
 H         1.386543         1.551104         1.690996
 H         2.152672        -0.079133         2.042594
 H         4.826754         0.858693         1.549215
 H         1.806936         2.707450        -0.007223
 H         3.194901         2.748809        -1.351004
 H         1.561892         0.707256        -2.198971
 H         3.844442        -0.394349        -1.488933
