19
Iteration:  2177charge 0 multiplicity 1
 C        -0.030874        -0.487387         0.161715
 C         1.353608        -0.022740         0.098720
 C         2.099515         0.620208         1.296141
 C         3.251959         1.197722         0.403198
 O         4.542591         1.480725         0.996878
 C         2.601929         2.192079        -0.643443
 C         1.956245         0.851014        -1.172259
 C         3.127788         0.079781        -0.722027
 O         2.295367        -1.092603        -0.176286
 H        -0.346175        -0.879675         1.123422
 H        -0.652122         0.262531         0.058272
 H        -0.110454        -1.297856        -0.569239
 H         1.573214         1.315412         1.957781
 H         2.414520        -0.283103         1.662210
 H         4.463265         0.923491         1.898059
 H         1.986600         3.027314        -0.319989
 H         3.310093         2.516073        -1.388256
 H         1.519135         0.651613        -2.145034
 H         4.070844         0.145198        -1.283740
