19
Iteration:   815charge 0 multiplicity 1
 C        -0.083787        -0.302348         0.219909
 C         1.383548        -0.067917         0.049933
 C         2.071175         0.749258         1.146913
 C         3.278621         1.103885         0.368120
 O         4.434038         1.439251         1.109118
 C         2.656455         2.099772        -0.599785
 C         2.004846         0.827535        -1.132560
 C         3.183615        -0.065772        -0.743204
 O         2.352770        -1.129679        -0.198900
 H        -0.308584        -0.533690         1.284069
 H        -0.449688         0.639652        -0.134483
 H        -0.524259        -1.011088        -0.528131
 H         1.399836         1.695059         1.358020
 H         2.189823         0.033268         2.049378
 H         4.120302         2.017709         1.878281
 H         2.024407         2.803098        -0.097285
 H         3.377874         2.420206        -1.324197
 H         1.530442         0.838160        -2.150722
 H         4.080328        -0.246573        -1.420969
