19
Iteration:  3597charge 0 multiplicity 1
 C        -0.092439        -0.553800         0.142377
 C         1.337816         0.008668         0.095331
 C         2.092960         0.690771         1.263990
 C         3.225564         1.208220         0.396584
 O         4.502110         1.458716         0.995361
 C         2.578344         2.118569        -0.590720
 C         1.912115         0.839316        -1.139234
 C         3.127473         0.051050        -0.694580
 O         2.443438        -1.022040        -0.167680
 H        -0.137782        -0.667008         1.289346
 H        -0.657817         0.227666        -0.355440
 H        -0.363369        -1.584484        -0.335607
 H         1.583068         1.521898         1.769499
 H         2.476225        -0.008992         1.918514
 H         5.110222         0.875691         0.635324
 H         1.937990         2.936619        -0.181403
 H         3.308152         2.524408        -1.327761
 H         1.264760         0.829356        -1.969240
 H         4.124741        -0.235986        -1.178402
