19
Iteration:  2253
 C        -0.105518        -0.482149         0.211601
 C         1.311139         0.004013         0.140360
 C         2.103626         0.622094         1.332452
 C         3.266285         1.159582         0.428660
 O         4.444970         1.545371         1.002766
 C         2.650278         2.093299        -0.705050
 C         1.987160         0.852375        -1.227812
 C         3.230335         0.068044        -0.684860
 O         2.320798        -1.054651        -0.233887
 H        -0.150133        -1.559381         0.560586
 H        -0.748902         0.063182         0.793445
 H        -0.518054        -0.449113        -0.824000
 H         1.674404         1.473016         2.076983
 H         2.446872        -0.238547         1.862824
 H         4.748997         0.904471         1.592999
 H         2.075051         2.896040        -0.276297
 H         3.366357         2.575761        -1.346052
 H         1.384595         0.706152        -2.124784
 H         4.104987        -0.267656        -1.374906
