19
Iteration:  2877charge 0 multiplicity 1
 C        -0.013655        -0.456228         0.196430
 C         1.341115        -0.029301         0.080657
 C         2.083479         0.673534         1.269449
 C         3.296030         1.121715         0.401079
 O         4.510257         1.567759         0.980910
 C         2.601983         2.154490        -0.558446
 C         1.873976         0.831867        -1.071739
 C         3.187515        -0.031207        -0.733213
 O         2.351400        -1.088081        -0.300091
 H        -0.131570        -1.512198         0.515877
 H        -0.532139         0.202963         1.046880
 H        -0.450951        -0.529052        -0.882051
 H         1.481796         1.494937         1.479019
 H         2.280683        -0.070568         2.111661
 H         4.705881         1.288077         1.874139
 H         1.934000         2.799195         0.069169
 H         3.189635         2.493043        -1.451332
 H         1.325994         1.002122        -1.998145
 H         3.926990        -0.265074        -1.485533
