19
Iteration:  3523
 C        -0.082616        -0.481407         0.313448
 C         1.422753        -0.064815         0.065199
 C         2.109106         0.671043         1.244296
 C         3.245217         1.193120         0.382424
 O         4.460659         1.505897         1.033054
 C         2.640411         2.183944        -0.648236
 C         1.914712         0.814482        -1.139112
 C         3.161306        -0.010472        -0.789047
 O         2.375078        -1.060212        -0.261081
 H        -0.115210        -1.360717         1.053963
 H        -0.736801         0.322744         0.663388
 H        -0.407877        -0.682719        -0.729908
 H         1.443655         1.467675         1.795878
 H         2.507916        -0.241148         1.894845
 H         4.341043         1.566063         1.999508
 H         1.904898         2.893139        -0.230958
 H         3.376448         2.579185        -1.395979
 H         1.258912         0.641961        -2.018404
 H         4.086827        -0.232008        -1.349670
