19
Iteration:  2763
 C        -0.020962        -0.536430         0.187932
 C         1.373521         0.041294         0.111733
 C         2.071580         0.632392         1.292131
 C         3.275311         1.147162         0.372413
 O         4.479242         1.509439         1.040135
 C         2.583801         2.151591        -0.595797
 C         1.922919         0.908372        -1.154858
 C         3.143564         0.025398        -0.727935
 O         2.346333        -1.041190        -0.253206
 H        -0.305771        -0.679811         1.257956
 H        -0.694146         0.235345        -0.057480
 H        -0.011532        -1.516740        -0.275049
 H         1.556348         1.309261         1.954229
 H         2.373753        -0.269040         2.001617
 H         4.978039         0.597252         1.025178
 H         1.857247         2.919811        -0.293205
 H         3.397235         2.421312        -1.266323
 H         1.387299         1.083133        -2.138582
 H         4.011364        -0.265759        -1.438085
