19
Iteration:  3194
 C        -0.021139        -0.490892         0.214241
 C         1.398664         0.037559         0.068304
 C         2.177565         0.609168         1.290540
 C         3.249259         1.181584         0.465747
 O         4.524224         1.480520         0.980228
 C         2.513856         2.119224        -0.612230
 C         1.902682         0.882738        -1.152062
 C         3.132686        -0.011789        -0.761650
 O         2.365755        -1.055722        -0.268169
 H        -0.247644        -0.920550         1.274037
 H        -0.785097         0.284948         0.068343
 H        -0.401757        -1.106960        -0.687807
 H         1.761092         1.308697         1.886073
 H         2.571501        -0.199331         1.934625
 H         4.323967         1.769744         1.886032
 H         1.710288         2.770597        -0.230307
 H         3.237185         2.641347        -1.222102
 H         1.270656         0.826871        -1.985942
 H         4.041607        -0.348186        -1.289201
