19
Iteration:  4103
 C        -0.081640        -0.470445         0.238988
 C         1.347408        -0.012819         0.119144
 C         2.157047         0.567039         1.233171
 C         3.262251         1.204082         0.426190
 O         4.483625         1.595406         0.966689
 C         2.641812         2.080416        -0.617374
 C         1.942283         0.935325        -1.129789
 C         3.126834        -0.033171        -0.728423
 O         2.337894        -1.114791        -0.272452
 H        -0.557800        -0.256336         1.302309
 H        -0.811853         0.137125        -0.383804
 H        -0.239769        -1.451181        -0.051733
 H         1.652132         1.242559         2.013661
 H         2.636817        -0.225815         1.795197
 H         4.470975         1.603196         1.862816
 H         1.957357         2.948070        -0.517842
 H         3.513661         2.420707        -1.203252
 H         1.422270         0.663400        -2.099006
 H         4.019180        -0.259362        -1.147478
