19
Iteration:   199charge 0 multiplicity 1
 C        -0.122318        -0.315969        -0.072157
 C         1.282310         0.047665         0.043146
 C         2.063426         0.681843         1.377676
 C         3.255172         1.182438         0.449508
 O         4.551391         1.336804         1.010537
 C         2.690482         2.081718        -0.616416
 C         1.954318         0.761929        -1.130877
 C         3.156167         0.060127        -0.659331
 O         2.334928        -1.093356        -0.097227
 H        -0.430545        -0.792338         0.831363
 H        -0.679576         0.619470        -0.177144
 H        -0.231341        -1.017793        -0.823329
 H         1.618231         1.419040         2.012348
 H         2.316468        -0.198849         1.940741
 H         4.697361         2.331865         1.132390
 H         2.117638         2.923334        -0.242416
 H         3.498428         2.355345        -1.286492
 H         1.559846         0.425504        -2.150761
 H         3.955370        -0.211222        -1.351574
