19
Iteration:   880
 C        -0.063261        -0.463875         0.088459
 C         1.335494         0.037536         0.029382
 C         1.977454         0.842982         1.282968
 C         3.259048         1.106922         0.467677
 O         4.584675         1.401288         0.975929
 C         2.689402         2.064491        -0.595610
 C         1.968690         0.831352        -1.172973
 C         3.122411        -0.038749        -0.703861
 O         2.331207        -1.062955        -0.106408
 H        -0.334515        -1.540937         0.470108
 H        -0.742164         0.209863         0.593401
 H        -0.350644        -0.666010        -0.982138
 H         1.528793         1.790459         1.575798
 H         1.998206         0.197810         2.182947
 H         4.516978         1.932951         1.715830
 H         2.161015         3.010125        -0.347571
 H         3.510813         2.212830        -1.312218
 H         1.404975         0.871058        -2.159293
 H         4.143806        -0.250833        -1.210219
