19
Iteration:  4337charge 0 multiplicity 1
 C        -0.056533        -0.645737         0.277696
 C         1.335727         0.051268         0.138860
 C         2.021854         0.728102         1.248701
 C         3.301979         1.155018         0.412622
 O         4.547753         1.432670         0.966779
 C         2.715275         2.114771        -0.643967
 C         1.832824         0.933506        -1.149461
 C         3.119437         0.044249        -0.764901
 O         2.338226        -1.059680        -0.228343
 H        -0.458753        -0.617850         1.259058
 H        -0.626251         0.010772        -0.370456
 H         0.063912        -1.660631        -0.269326
 H         1.441953         1.559507         1.686134
 H         2.161720        -0.065470         1.993291
 H         4.700226         1.855828         1.882302
 H         2.210234         2.998167        -0.200420
 H         3.385037         2.602330        -1.321664
 H         1.596696         0.654336        -2.080663
 H         4.059653        -0.125968        -1.442583
