19
Iteration:  3077
 C        -0.022591        -0.580992         0.239769
 C         1.339830        -0.013420         0.081230
 C         2.026868         0.704175         1.257463
 C         3.236432         1.169173         0.405651
 O         4.534481         1.360941         0.960825
 C         2.587537         2.155555        -0.629092
 C         1.870592         0.924563        -1.085189
 C         3.185362         0.048883        -0.740930
 O         2.429782        -1.041678        -0.245120
 H         0.111380        -1.571099         0.582273
 H        -0.691035         0.057329         0.886560
 H        -0.460882        -0.465461        -0.651294
 H         1.278848         1.531266         1.654617
 H         2.211229        -0.042965         2.158898
 H         4.498301         1.866258         1.855573
 H         2.156891         3.109548        -0.297920
 H         3.308372         2.420176        -1.450461
 H         1.344072         1.026691        -2.012399
 H         4.089102        -0.186772        -1.340793
