19
Iteration:  3265
 C        -0.000500        -0.588073         0.243918
 C         1.358397        -0.016825         0.092624
 C         2.114198         0.734571         1.227770
 C         3.274904         1.152248         0.396711
 O         4.453504         1.473325         1.042583
 C         2.603497         2.223709        -0.676464
 C         1.906327         0.869817        -1.172512
 C         3.128828         0.025836        -0.686363
 O         2.358416        -1.065402        -0.221419
 H         0.060455        -1.531563         0.702087
 H        -0.695400        -0.006756         0.901036
 H        -0.587399        -0.528445        -0.613179
 H         1.442014         1.538274         1.760221
 H         2.460416         0.001772         1.992482
 H         5.012477         0.683624         1.216236
 H         1.978243         2.935472        -0.120949
 H         3.321256         2.636078        -1.420008
 H         1.340064         0.916578        -2.194149
 H         4.006488        -0.228100        -1.282766
