19
Iteration:  1987
 C        -0.041931        -0.510930         0.147567
 C         1.376235        -0.013773         0.074271
 C         2.030599         0.782908         1.219851
 C         3.299748         1.178214         0.488176
 O         4.570030         1.507103         1.019529
 C         2.605911         2.080057        -0.534874
 C         1.847023         0.805030        -1.114264
 C         3.147914         0.019369        -0.748195
 O         2.388663        -1.096162        -0.255594
 H        -0.350176        -1.083591         1.068289
 H        -0.580926         0.466110         0.046085
 H        -0.388415        -1.170010        -0.655365
 H         1.326481         1.750086         1.566879
 H         2.075612         0.190353         2.110458
 H         4.815287         0.738829         1.602503
 H         2.077993         3.024581        -0.326718
 H         3.254199         2.496983        -1.342195
 H         1.230561         0.839935        -2.014867
 H         3.979937        -0.164416        -1.478858
