19
Iteration:   754charge 0 multiplicity 1
 C        -0.064454        -0.470780        -0.038914
 C         1.324578         0.106027         0.119338
 C         2.011081         0.850433         1.267952
 C         3.308290         1.105475         0.407171
 O         4.560853         1.339581         0.964912
 C         2.661318         2.128307        -0.607168
 C         1.966915         0.869428        -1.086865
 C         3.090691        -0.098376        -0.688495
 O         2.373409        -1.117015        -0.094111
 H        -0.312708        -1.021281         1.043145
 H        -0.952828         0.285896         0.027050
 H        -0.296922        -1.161707        -0.989989
 H         1.473029         1.759760         1.416235
 H         2.158754         0.169509         2.101592
 H         4.362458         1.915393         1.699817
 H         2.138599         2.957683        -0.018487
 H         3.360139         2.737788        -1.235926
 H         1.423659         0.912666        -2.068212
 H         4.081894        -0.259821        -1.194548
