19
Iteration:   800charge 0 multiplicity 1
 C        -0.133023        -0.302851         0.149881
 C         1.335656         0.017862         0.033546
 C         2.015537         0.689818         1.290081
 C         3.270639         1.161251         0.408308
 O         4.511040         1.413264         1.053967
 C         2.669557         2.124781        -0.629518
 C         1.953014         0.810338        -1.191237
 C         3.223486        -0.026755        -0.673537
 O         2.401786        -1.138501        -0.211614
 H        -0.578267        -0.635357         1.308312
 H        -0.958338         0.393144        -0.182544
 H        -0.319227        -1.133477        -0.480576
 H         1.499223         1.515630         1.606158
 H         2.299937        -0.020589         2.001607
 H         4.431923         1.829264         1.853719
 H         2.101191         3.060002        -0.393474
 H         3.399425         2.489490        -1.403215
 H         1.414879         0.600046        -2.084577
 H         4.051295        -0.439316        -1.166025
