19
Iteration:  1515
 C        -0.068729        -0.465198         0.214985
 C         1.312165         0.036486         0.031170
 C         2.139336         0.594596         1.254852
 C         3.291577         1.127210         0.433804
 O         4.438866         1.521109         1.091561
 C         2.655302         2.166920        -0.719094
 C         1.975238         0.896330        -1.163596
 C         3.132540        -0.020583        -0.691226
 O         2.308426        -1.030145        -0.190414
 H        -0.177208        -1.012061         1.097154
 H        -0.858907         0.260072        -0.055041
 H        -0.516482        -1.238420        -0.527557
 H         1.499145         1.412860         1.865970
 H         2.414185        -0.309461         1.873313
 H         4.949717         0.737895         1.520872
 H         2.297157         3.205923        -0.406643
 H         3.488757         2.474038        -1.434745
 H         1.619826         0.703772        -2.215284
 H         4.031301        -0.355065        -1.274597
