19
Iteration:  2377charge 0 multiplicity 1
 C        -0.024871        -0.442019         0.278229
 C         1.384521        -0.059944         0.086736
 C         2.082313         0.616234         1.218449
 C         3.336561         1.135946         0.385565
 O         4.489114         1.590279         1.051949
 C         2.573848         2.214520        -0.553834
 C         1.975034         0.857905        -1.126209
 C         3.162196        -0.041761        -0.775756
 O         2.297086        -1.138519        -0.307557
 H        -0.316826        -0.764815         1.230881
 H        -0.639103         0.338707        -0.302305
 H        -0.243482        -1.209306        -0.439030
 H         1.550617         1.485856         1.667739
 H         2.130335        -0.139850         2.082536
 H         4.592955         1.159542         1.839836
 H         1.867466         3.019261        -0.199436
 H         3.323328         2.641113        -1.306651
 H         1.294466         0.866028        -1.988955
 H         3.948411        -0.240715        -1.467578
