19
Iteration:  2023
 C        -0.011090        -0.557106         0.102333
 C         1.330923         0.090776         0.044096
 C         2.145287         0.705309         1.290133
 C         3.225077         1.226819         0.425980
 O         4.488761         1.462081         0.961323
 C         2.652912         2.163854        -0.609930
 C         1.932622         0.867566        -1.190420
 C         3.099197        -0.012699        -0.683204
 O         2.332252        -1.098903        -0.120875
 H         0.043872        -1.561290         0.735517
 H        -0.652739         0.093782         0.661873
 H        -0.425444        -0.618692        -0.956165
 H         1.707851         1.441619         1.966037
 H         2.344616        -0.324778         1.803239
 H         4.523192         1.216924         1.960220
 H         1.958491         2.916526        -0.205849
 H         3.496501         2.486030        -1.262023
 H         1.293522         0.763192        -2.149896
 H         4.032160        -0.277965        -1.361606
