19
Iteration:   283charge 0 multiplicity 1
 C        -0.068884        -0.442920         0.192789
 C         1.334928         0.003076         0.048875
 C         2.027238         0.760082         1.225399
 C         3.291504         1.191561         0.398102
 O         4.370120         1.426549         1.238465
 C         2.805314         2.079218        -0.744431
 C         2.015317         0.865353        -1.106449
 C         3.118101         0.013741        -0.679347
 O         2.295157        -1.099223        -0.257451
 H        -0.175745        -1.155906         0.986535
 H        -0.768082         0.418832         0.419495
 H        -0.541508        -0.732893        -0.858806
 H         1.597764         1.601913         1.800291
 H         2.415000         0.071857         1.949439
 H         5.037100         0.895640         0.751177
 H         2.273456         3.047084        -0.570044
 H         3.595778         2.272453        -1.492604
 H         1.774110         0.706344        -2.109780
 H         3.815594        -0.249207        -1.390708
