19
Iteration:  3979charge 0 multiplicity 1
 C        -0.090811        -0.372082         0.211361
 C         1.376138        -0.089394         0.084350
 C         2.104321         0.699897         1.270595
 C         3.289219         1.136998         0.346351
 O         4.519175         1.631192         1.003383
 C         2.553783         2.112084        -0.564227
 C         1.934950         0.792003        -1.193011
 C         3.150951        -0.030066        -0.736216
 O         2.384532        -1.129044        -0.208248
 H        -0.152354        -1.415640         0.538178
 H        -0.600779         0.087402         1.051816
 H        -0.735498        -0.437449        -0.738176
 H         1.510087         1.526777         1.506345
 H         2.418366         0.031003         2.179326
 H         4.525238         1.234484         1.829436
 H         1.939308         2.902706        -0.132014
 H         3.326896         2.534317        -1.227597
 H         1.396309         0.619276        -2.147437
 H         4.053605        -0.352231        -1.428440
