19
Iteration:  3797charge 0 multiplicity 1
 C        -0.105808        -0.419082         0.263697
 C         1.375519        -0.037236         0.082852
 C         2.167617         0.574444         1.230383
 C         3.224278         1.160831         0.434069
 O         4.427393         1.655345         1.017469
 C         2.607565         2.105054        -0.632363
 C         1.910440         0.848068        -1.175818
 C         3.231723        -0.032766        -0.719819
 O         2.352620        -1.085432        -0.262737
 H        -0.290859        -0.389987         1.364146
 H        -0.805485         0.336388        -0.047359
 H        -0.090004        -1.362021        -0.253943
 H         1.656273         1.310822         1.922480
 H         2.505852        -0.209215         1.813181
 H         4.942948         0.798431         1.271440
 H         1.995900         2.903430        -0.175424
 H         3.453137         2.507626        -1.242258
 H         1.176111         0.701845        -2.005112
 H         3.995164        -0.345015        -1.334618
