19
Iteration:  2389
 C        -0.062198        -0.457282         0.179744
 C         1.397305         0.009465         0.067833
 C         2.117017         0.593530         1.315419
 C         3.255891         1.146828         0.416812
 O         4.476421         1.555546         0.994482
 C         2.606921         2.092806        -0.620125
 C         1.901938         0.865776        -1.115314
 C         3.197383         0.072665        -0.763272
 O         2.314629        -1.073615        -0.256077
 H        -0.328685        -0.770025         1.176716
 H        -0.756220         0.453368         0.159213
 H        -0.181861        -1.300487        -0.473509
 H         1.522732         1.290857         1.896878
 H         2.614123        -0.343981         1.839630
 H         4.492807         1.058379         1.897984
 H         2.008308         2.926801        -0.134103
 H         3.407080         2.515601        -1.314676
 H         1.553436         0.636664        -2.110773
 H         3.997289        -0.301543        -1.342991
