19
Iteration:  3882
 C         0.014727        -0.613378         0.165690
 C         1.333957         0.000635         0.184626
 C         2.026715         0.747085         1.339299
 C         3.191136         1.209067         0.429705
 O         4.515904         1.335174         0.915133
 C         2.605118         2.165234        -0.657247
 C         1.936545         0.882092        -1.134381
 C         3.139723         0.069070        -0.709118
 O         2.358541        -1.011494        -0.174353
 H         0.114620        -1.635822         0.526828
 H        -0.811503        -0.185437         0.695097
 H        -0.538903        -0.831295        -0.847867
 H         1.482332         1.586493         1.893038
 H         2.567151        -0.004105         1.932861
 H         4.878959         2.191346         0.975887
 H         2.201589         3.128531        -0.339327
 H         3.366363         2.281523        -1.465922
 H         1.619846         0.849440        -2.212453
 H         4.106864        -0.323871        -1.239648
