19
Iteration:   626charge 0 multiplicity 1
 C        -0.029601        -0.394674        -0.017505
 C         1.347842         0.138685         0.047174
 C         2.041404         0.668259         1.255666
 C         3.273097         1.174174         0.394010
 O         4.543043         1.294615         0.959937
 C         2.580377         2.196178        -0.627472
 C         1.961490         0.814095        -1.152977
 C         3.158739        -0.005032        -0.613899
 O         2.347578        -1.077172        -0.041343
 H        -0.460856        -0.874551         0.941428
 H        -0.846221         0.309584        -0.189034
 H        -0.140828        -1.222746        -0.645896
 H         1.584443         1.613773         1.866250
 H         2.282542        -0.017283         2.128406
 H         4.433411         1.504265         1.996085
 H         1.976180         3.081327        -0.353641
 H         3.376307         2.513869        -1.324413
 H         1.427795         0.569203        -2.151304
 H         4.079828        -0.305779        -1.196952
