19
Iteration:  4029charge 0 multiplicity 1
 C        -0.043760        -0.626005         0.211386
 C         1.261521         0.001258         0.108707
 C         2.071036         0.719881         1.269205
 C         3.238012         1.224204         0.436825
 O         4.501850         1.468527         0.987134
 C         2.657044         2.139404        -0.706797
 C         1.933283         0.895504        -1.149744
 C         3.143649         0.029566        -0.685749
 O         2.392784        -1.025146        -0.166978
 H        -0.479427        -1.047053         1.184978
 H        -0.913013         0.107955         0.138723
 H        -0.053355        -1.410254        -0.498546
 H         1.481802         1.497000         1.886364
 H         2.354323        -0.115980         1.862262
 H         5.150346         0.682920         0.944512
 H         2.165044         3.115952        -0.456340
 H         3.457586         2.367162        -1.432151
 H         1.334501         0.987410        -2.082915
 H         4.015778        -0.122847        -1.282771
