19
Iteration:  1586charge 0 multiplicity 1
 C        -0.086695        -0.406909         0.123047
 C         1.336716         0.042597         0.046950
 C         2.117730         0.610662         1.298194
 C         3.216135         1.116905         0.430112
 O         4.493353         1.458758         0.974709
 C         2.625350         2.174533        -0.617319
 C         1.952841         0.886864        -1.164756
 C         3.147691        -0.002340        -0.664070
 O         2.382349        -1.051305        -0.173942
 H        -0.281572        -0.949011         1.115311
 H        -0.901775         0.251439        -0.136576
 H        -0.269293        -1.198827        -0.562684
 H         1.748892         1.325573         1.871226
 H         2.456054        -0.270617         1.798491
 H         4.657200         1.225397         1.947296
 H         1.971044         2.988574        -0.429222
 H         3.336758         2.532278        -1.345489
 H         1.483484         0.695432        -2.144187
 H         4.029580        -0.426430        -1.164850
