19
Iteration:  3373charge 0 multiplicity 1
 C        -0.026871        -0.504031         0.248200
 C         1.390454        -0.032125         0.115234
 C         2.064303         0.661382         1.292972
 C         3.252177         1.176738         0.381832
 O         4.518226         1.442562         0.975951
 C         2.601245         2.212203        -0.555470
 C         1.904882         0.818346        -1.134413
 C         3.120432         0.075729        -0.769808
 O         2.382348        -1.094960        -0.301978
 H        -0.410242        -0.744264         1.293241
 H        -0.764714         0.369720        -0.123446
 H        -0.036918        -1.498051        -0.251452
 H         1.437869         1.269356         1.776076
 H         2.557316        -0.082147         1.982734
 H         4.317182         1.737875         1.835473
 H         1.977074         3.040524        -0.189894
 H         3.266420         2.649255        -1.334078
 H         1.488697         0.766880        -2.253850
 H         4.040391        -0.217642        -1.278882
