19
Iteration:  2390charge 0 multiplicity 1
 C        -0.065737        -0.453963         0.171478
 C         1.394516         0.014976         0.071471
 C         2.122081         0.594065         1.316805
 C         3.249058         1.151486         0.421484
 O         4.474357         1.551954         0.989507
 C         2.609508         2.079734        -0.620829
 C         1.898819         0.864913        -1.120525
 C         3.191814         0.075178        -0.758354
 O         2.320678        -1.067672        -0.253999
 H        -0.289438        -0.798989         1.202027
 H        -0.754471         0.432518         0.147362
 H        -0.224076        -1.306693        -0.494718
 H         1.544143         1.276647         1.914043
 H         2.652396        -0.359947         1.852155
 H         4.500154         1.048168         1.914607
 H         2.038978         2.934098        -0.141163
 H         3.384273         2.519530        -1.315956
 H         1.569923         0.640188        -2.109812
 H         4.013048        -0.288213        -1.333338
