19
Iteration:   472
 C        -0.030316        -0.484668        -0.048374
 C         1.371811         0.015238         0.065376
 C         2.078536         0.761811         1.274124
 C         3.318157         1.133580         0.413547
 O         4.604948         1.334164         1.017311
 C         2.598530         2.153147        -0.648446
 C         1.949126         0.874558        -1.118829
 C         3.104384        -0.021702        -0.602228
 O         2.239027        -1.043683        -0.088904
 H        -0.293696        -1.324452         0.706411
 H        -0.834305         0.323632         0.094383
 H        -0.208686        -0.725657        -1.024799
 H         1.450066         1.639963         1.614517
 H         2.392737         0.065443         2.086957
 H         4.458893         1.860946         1.778423
 H         1.981127         2.960802        -0.256596
 H         3.374432         2.340709        -1.393923
 H         1.419814         1.105829        -2.169711
 H         4.034864        -0.331686        -1.118372
