19
Iteration:  4820charge 0 multiplicity 1
 C         0.016693        -0.637082         0.293462
 C         1.367841         0.014487         0.077453
 C         2.091658         0.762670         1.197335
 C         3.284305         1.188753         0.416832
 O         4.477287         1.349466         1.093164
 C         2.584537         2.190927        -0.627035
 C         1.864899         0.877653        -1.198436
 C         3.158890         0.020082        -0.767631
 O         2.330336        -0.970389        -0.215596
 H        -0.498529         0.109814         0.931938
 H        -0.469787        -0.677517        -0.689275
 H        -0.072874        -1.481591         0.972289
 H         1.689638         1.546189         1.761633
 H         2.324039         0.053113         2.035101
 H         5.156525         1.206590         0.314864
 H         2.009000         3.013132        -0.163502
 H         3.346022         2.516641        -1.382129
 H         1.094846         0.665024        -1.997867
 H         4.028452        -0.269708        -1.335731
