19
Iteration:  1579charge 0 multiplicity 1
 C        -0.089046        -0.418884         0.173537
 C         1.365585         0.037261         0.007550
 C         2.132854         0.624871         1.239918
 C         3.238215         1.147585         0.393338
 O         4.521481         1.462472         1.007663
 C         2.576130         2.179334        -0.580560
 C         1.947908         0.850659        -1.194216
 C         3.164472        -0.000546        -0.679260
 O         2.332838        -1.054949        -0.168614
 H        -0.294834        -0.823151         1.205394
 H        -0.732665         0.372240        -0.219171
 H        -0.153536        -1.325663        -0.552666
 H         1.556966         1.371062         2.057490
 H         2.290986        -0.260494         1.856172
 H         4.577299         1.144389         2.015120
 H         1.991007         3.034135        -0.096830
 H         3.341735         2.401923        -1.385876
 H         1.576693         0.688907        -2.263849
 H         4.102183        -0.406451        -1.179602
