19
Iteration:  4499charge 0 multiplicity 1
 C        -0.017907        -0.481841         0.296074
 C         1.403497         0.023553         0.045557
 C         2.060369         0.697694         1.253155
 C         3.287767         1.151811         0.396884
 O         4.507791         1.427693         1.037916
 C         2.555932         2.128893        -0.561390
 C         1.881429         0.901035        -1.117385
 C         3.154524         0.059150        -0.836328
 O         2.380843        -1.093238        -0.270336
 H        -0.915504        -0.145296        -0.113178
 H         0.042660        -1.476034        -0.102875
 H        -0.198177        -0.601049         1.397588
 H         1.662031         1.730866         1.468475
 H         2.198862         0.135878         2.166448
 H         4.775083         0.572082         1.606478
 H         2.025262         3.011556        -0.210640
 H         3.128446         2.548720        -1.333710
 H         1.228638         0.895495        -1.993701
 H         3.889016        -0.030609        -1.699625
