19
Iteration:   577
 C        -0.058160        -0.406571         0.167422
 C         1.356946         0.033817         0.026134
 C         1.999258         0.770692         1.183562
 C         3.280201         1.163214         0.489289
 O         4.488246         1.372551         1.086343
 C         2.784466         2.084243        -0.692213
 C         1.957261         0.864379        -1.123541
 C         3.109361        -0.007917        -0.682871
 O         2.302861        -1.098971        -0.223513
 H        -0.246822        -0.972121         1.046637
 H        -0.852650         0.347566         0.205682
 H        -0.289516        -1.259088        -0.575123
 H         1.385112         1.360327         1.706925
 H         2.280121        -0.023937         1.858731
 H         4.444264         2.040568         1.714499
 H         2.248662         2.977883        -0.301078
 H         3.547128         2.419644        -1.426461
 H         1.618240         0.646289        -2.071940
 H         4.013914        -0.186156        -1.188274
