19
Iteration:  3029
 C        -0.043245        -0.485578         0.229911
 C         1.363609        -0.018781         0.039913
 C         2.070979         0.699919         1.232259
 C         3.310653         1.103278         0.388928
 O         4.550096         1.511681         1.012432
 C         2.572073         2.124757        -0.527729
 C         1.876207         0.886011        -1.140196
 C         3.158302         0.026773        -0.772164
 O         2.385133        -1.120436        -0.290353
 H         0.063630        -1.253204         1.017773
 H        -0.523789         0.355441         0.640588
 H        -0.619238        -0.665151        -0.747855
 H         1.627037         1.560754         1.720895
 H         2.277966        -0.195198         2.138930
 H         4.329901         1.767325         1.945178
 H         1.917694         2.879381        -0.050775
 H         3.081365         2.733755        -1.273742
 H         1.114945         0.671297        -1.908214
 H         4.030173        -0.399337        -1.269697
