19
Iteration:  4598charge 0 multiplicity 1
 C        -0.097281        -0.334834         0.230836
 C         1.397638        -0.009662         0.129133
 C         2.180892         0.594432         1.313303
 C         3.278176         1.204904         0.338645
 O         4.516205         1.475489         0.952372
 C         2.482786         2.077049        -0.611505
 C         1.869886         0.834539        -1.176832
 C         3.208660         0.052486        -0.726726
 O         2.410466        -1.105839        -0.233389
 H        -0.602883         0.375325         0.796743
 H        -0.627138        -0.284812        -0.699542
 H        -0.271203        -1.424380         0.598013
 H         1.518194         1.225540         1.947258
 H         2.491380        -0.268902         1.851032
 H         4.385233         1.344073         1.978199
 H         1.744478         2.686939        -0.082772
 H         3.099103         2.666560        -1.273479
 H         1.450919         0.796585        -2.114426
 H         4.102315        -0.302542        -1.286118
