19
Iteration:  1365charge 0 multiplicity 1
 C        -0.053917        -0.399509         0.145345
 C         1.358000         0.052051         0.029432
 C         2.101334         0.686395         1.280871
 C         3.231109         1.176868         0.469149
 O         4.453892         1.463956         1.059759
 C         2.635700         2.162419        -0.668526
 C         1.990172         0.867252        -1.150915
 C         3.200961         0.012770        -0.750163
 O         2.279533        -1.152256        -0.169713
 H        -0.250917        -0.626700         1.192677
 H        -0.917681         0.347367         0.021522
 H        -0.208182        -1.372953        -0.423215
 H         1.638454         1.371431         1.937147
 H         2.453007        -0.243355         1.908776
 H         4.845255         0.536617         1.360575
 H         2.003370         3.074993        -0.411148
 H         3.468194         2.485837        -1.354824
 H         1.496033         0.687073        -2.165123
 H         4.131074        -0.186375        -1.378760
