19
Iteration:   666
 C        -0.142914        -0.358033         0.134856
 C         1.352343         0.001818         0.045734
 C         2.051484         0.798889         1.205542
 C         3.300238         1.094680         0.400876
 O         4.521479         1.485426         1.113903
 C         2.690177         2.113687        -0.584447
 C         1.968931         0.824263        -1.102091
 C         3.159852        -0.078210        -0.739274
 O         2.313776        -1.175795        -0.239632
 H        -0.236075        -1.214151         0.918464
 H        -0.670519         0.557389         0.561726
 H        -0.351077        -0.902268        -0.840263
 H         1.394530         1.566402         1.486368
 H         2.105044         0.199617         2.119103
 H         4.365882         2.109795         1.766770
 H         2.316378         3.113002        -0.182681
 H         3.408285         2.292087        -1.426397
 H         1.662897         0.734088        -2.185714
 H         4.038872        -0.428888        -1.350903
