19
Iteration:  1033charge 0 multiplicity 1
 C        -0.116412        -0.391355         0.083169
 C         1.328717         0.039528         0.087383
 C         2.008716         0.745742         1.257860
 C         3.306940         1.111443         0.453962
 O         4.596840         1.390554         0.969997
 C         2.620300         2.079334        -0.622331
 C         1.922407         0.854178        -1.161936
 C         3.131873         0.003340        -0.608189
 O         2.420972        -1.117360        -0.154447
 H        -0.363611        -1.053708         0.928917
 H        -0.770879         0.499847         0.098553
 H        -0.331830        -0.924388        -0.915537
 H         1.475693         1.753764         1.250538
 H         1.943183         0.298348         2.297639
 H         4.546175         1.483009         1.923779
 H         1.913217         2.960987        -0.395256
 H         3.262260         2.512574        -1.492269
 H         1.523298         0.725753        -2.194612
 H         4.054856        -0.188361        -1.237035
