19
Iteration:   528
 C        -0.060502        -0.318772         0.146515
 C         1.314807        -0.011003        -0.008679
 C         2.030362         0.775734         1.176914
 C         3.314594         1.191726         0.428856
 O         4.494899         1.416316         1.156642
 C         2.657443         2.064682        -0.580075
 C         1.973315         0.769413        -1.162565
 C         3.187646        -0.075768        -0.668704
 O         2.306065        -1.152197        -0.258843
 H        -0.305611        -1.322011         0.652284
 H        -0.451449         0.388950         0.902090
 H        -0.635895        -0.480788        -0.690014
 H         1.519676         1.785092         1.536087
 H         2.188526         0.160610         2.103844
 H         4.581329         2.448637         1.356688
 H         2.109651         2.887308        -0.114313
 H         3.412866         2.427293        -1.308999
 H         1.588337         0.840284        -2.296169
 H         4.123597        -0.372978        -1.303709
