19
Iteration:  1735
 C        -0.076693        -0.436968         0.099349
 C         1.339797        -0.029851         0.097122
 C         2.157113         0.584955         1.377815
 C         3.220172         1.224382         0.459468
 O         4.526626         1.462686         0.953939
 C         2.622925         2.102936        -0.645529
 C         1.960665         0.883627        -1.197405
 C         3.141793         0.086694        -0.677930
 O         2.306959        -1.081866        -0.193953
 H        -0.529355        -0.803486         1.025267
 H        -0.797162         0.399935        -0.146375
 H        -0.069533        -1.263902        -0.626409
 H         1.501126         1.329834         1.929893
 H         2.448541        -0.308685         1.946598
 H         4.654004         1.168442         1.795424
 H         1.980768         3.010894        -0.451349
 H         3.422434         2.451092        -1.364972
 H         1.551927         0.823674        -2.137956
 H         4.068846        -0.133338        -1.097159
