19
Iteration:  1897charge 0 multiplicity 1
 C        -0.083230        -0.465080         0.135432
 C         1.365617        -0.005554         0.056297
 C         2.079560         0.642838         1.350697
 C         3.215582         1.100634         0.438044
 O         4.486959         1.507448         0.952964
 C         2.672623         2.111661        -0.643836
 C         1.880862         0.865436        -1.132462
 C         3.113583         0.056711        -0.684065
 O         2.448107        -1.099084        -0.213912
 H        -0.396850        -1.114915         0.964242
 H        -0.628630         0.515036         0.327217
 H        -0.347184        -0.902845        -0.842028
 H         1.509538         1.696293         1.654814
 H         2.394603        -0.019601         2.134265
 H         4.565370         1.265230         1.874602
 H         2.236965         3.039241        -0.227106
 H         3.432356         2.439534        -1.363097
 H         1.411111         0.737566        -2.069620
 H         3.887375        -0.117881        -1.334019
