19
Iteration:  3696charge 0 multiplicity 1
 C        -0.035107        -0.527127         0.291953
 C         1.375935        -0.040970         0.096424
 C         2.041604         0.824907         1.207909
 C         3.303735         1.102969         0.357223
 O         4.500102         1.489683         1.101526
 C         2.644246         2.157146        -0.634131
 C         1.927799         0.811582        -1.110264
 C         3.156677        -0.004058        -0.757878
 O         2.310060        -1.136459        -0.250737
 H         0.176541        -1.608055         0.502536
 H        -0.465768         0.151639         1.023270
 H        -0.635466        -0.561437        -0.715520
 H         1.260386         1.691891         1.312573
 H         2.166579         0.296721         2.139539
 H         4.677670         2.439811         0.982267
 H         1.894175         2.918683        -0.317107
 H         3.414425         2.626788        -1.299274
 H         1.468460         0.477984        -2.045844
 H         4.061094        -0.233276        -1.416129
