19
Iteration:  4157charge 0 multiplicity 1
 C        -0.080484        -0.450866         0.238450
 C         1.368895        -0.013359         0.063501
 C         2.045191         0.706301         1.256865
 C         3.284076         1.172712         0.341009
 O         4.518329         1.448244         0.969297
 C         2.522950         2.178857        -0.574856
 C         1.946276         0.857743        -1.185268
 C         3.207060         0.002498        -0.755292
 O         2.414739        -1.110232        -0.156198
 H        -0.238259        -0.860078         1.266670
 H        -0.716944         0.378914        -0.072983
 H        -0.374604        -1.145101        -0.427316
 H         1.653791         1.470037         1.944079
 H         2.438418         0.047676         2.043346
 H         4.454034         1.170864         1.840915
 H         1.866185         2.949312        -0.183930
 H         3.154539         2.530991        -1.413798
 H         1.282418         0.620556        -2.086967
 H         3.988543        -0.263316        -1.349144
