19
Iteration:  4933
 C        -0.079696        -0.350340         0.276975
 C         1.425799        -0.051850         0.134634
 C         2.134994         0.590581         1.339166
 C         3.223135         1.097712         0.410440
 O         4.527527         1.526184         0.997681
 C         2.526646         2.152126        -0.509402
 C         1.933133         0.835783        -1.144737
 C         3.085925        -0.024061        -0.874801
 O         2.433968        -1.100323        -0.348467
 H        -0.734752         0.522705         0.438151
 H        -0.403478        -0.944787        -0.581299
 H        -0.249167        -0.921317         1.167091
 H         1.538168         1.317695         1.878978
 H         2.368518        -0.163647         1.999403
 H         4.608393         2.493512         1.063065
 H         2.021842         2.886106         0.075841
 H         3.219676         2.468997        -1.244778
 H         1.300315         0.578457        -1.997818
 H         3.912021        -0.302214        -1.589937
