19
Iteration:  2534charge 0 multiplicity 1
 C        -0.035052        -0.438810         0.154225
 C         1.368457         0.002235         0.077919
 C         2.143056         0.603508         1.256968
 C         3.287905         1.179480         0.367763
 O         4.504339         1.524693         0.984489
 C         2.558859         2.119363        -0.538292
 C         1.900281         0.882724        -1.097593
 C         3.124649         0.025948        -0.743391
 O         2.363743        -1.132634        -0.252587
 H        -0.204545        -0.700661         1.230908
 H        -0.603044         0.441391         0.037928
 H        -0.384206        -1.229722        -0.523494
 H         1.745532         1.403633         1.799883
 H         2.396341        -0.237285         2.003360
 H         4.405402         1.084767         1.908610
 H         1.912741         2.948486        -0.228621
 H         3.144314         2.702458        -1.204868
 H         1.361995         0.729125        -2.040549
 H         4.119394        -0.153672        -1.243873
