19
Iteration:  3953
 C        -0.046154        -0.361292         0.292651
 C         1.383947        -0.029418         0.077080
 C         2.123149         0.606806         1.298846
 C         3.223438         1.199629         0.342924
 O         4.458832         1.510752         0.997746
 C         2.528690         2.104678        -0.675478
 C         1.948566         0.832159        -1.178314
 C         3.232471        -0.006921        -0.663353
 O         2.404315        -1.096656        -0.240793
 H        -0.242372        -1.493880         0.307058
 H        -0.640342         0.102262         1.161476
 H        -0.689480        -0.178471        -0.545643
 H         1.406489         1.362553         1.946719
 H         2.570988        -0.346282         1.772044
 H         4.224656         1.839695         1.835900
 H         1.943284         3.047469        -0.536257
 H         3.305574         2.231366        -1.452001
 H         1.421897         0.706686        -2.122459
 H         4.123992        -0.289400        -1.224873
