19
Iteration:   155
 C        -0.102231        -0.392527         0.094773
 C         1.352543         0.083866         0.016161
 C         1.956295         0.835827         1.216885
 C         3.320228         1.122656         0.513420
 O         4.613475         1.394407         1.039781
 C         2.706063         2.097196        -0.612571
 C         1.941664         0.775731        -1.178118
 C         3.115916        -0.047407        -0.690407
 O         2.301556        -1.098976        -0.165099
 H        -0.174346        -1.294426         0.598287
 H        -0.849515         0.318312         0.470998
 H        -0.381322        -0.746221        -0.794022
 H         1.450972         1.745492         1.483274
 H         2.081458         0.181099         2.052271
 H         4.505755         1.361935         2.077239
 H         2.207788         2.964430        -0.192757
 H         3.436102         2.420395        -1.347157
 H         1.558461         0.567926        -2.220514
 H         4.000607        -0.198855        -1.255113
