19
Iteration:   990
 C        -0.056564        -0.337857         0.195522
 C         1.386282         0.082933         0.049639
 C         2.089703         0.677513         1.219254
 C         3.314473         1.073033         0.390229
 O         4.495289         1.476488         1.131061
 C         2.561304         2.087611        -0.715727
 C         2.003607         0.848729        -1.176297
 C         3.159753        -0.074139        -0.675446
 O         2.280465        -1.127746        -0.214498
 H        -0.343890        -0.608842         1.253589
 H        -0.677149         0.544793        -0.082393
 H        -0.138929        -1.290981        -0.450469
 H         1.758499         1.470979         1.741774
 H         2.297826        -0.203504         1.861766
 H         4.088696         1.987894         1.915699
 H         2.051155         3.044159        -0.483354
 H         3.457907         2.555237        -1.142011
 H         1.532783         0.741250        -2.181682
 H         4.017018        -0.366763        -1.355680
