19
Iteration:  2140charge 0 multiplicity 1
 C        -0.032197        -0.503381         0.084697
 C         1.350791        -0.004339         0.124284
 C         2.009718         0.755709         1.238307
 C         3.329856         1.083362         0.397023
 O         4.542219         1.527171         0.943019
 C         2.583988         2.117895        -0.466945
 C         1.928715         0.817433        -1.083101
 C         3.082422         0.064360        -0.769978
 O         2.382909        -1.116933        -0.204717
 H        -0.336800        -0.776052         1.112593
 H        -0.800963         0.312298        -0.321477
 H        -0.082433        -1.271019        -0.672765
 H         1.548543         1.878693         1.560945
 H         2.136941         0.207358         2.259867
 H         4.895220         0.865164         1.700346
 H         2.177821         2.923735         0.141173
 H         3.242180         2.509852        -1.271508
 H         1.339358         0.761830        -2.026179
 H         3.998933        -0.194625        -1.401634
