19
Iteration:  3237charge 0 multiplicity 1
 C        -0.024889        -0.563619         0.215375
 C         1.364776        -0.034758         0.078365
 C         2.056518         0.788294         1.255778
 C         3.286771         1.129603         0.441457
 O         4.518409         1.506076         0.987871
 C         2.613120         2.137423        -0.563908
 C         1.867262         0.866030        -1.103603
 C         3.146133        -0.002018        -0.823026
 O         2.380125        -1.063912        -0.256202
 H         0.059262        -1.520011         0.925102
 H        -0.702620        -0.055562         0.915016
 H        -0.472832        -0.797502        -0.895618
 H         1.350348         1.633048         1.500805
 H         2.084343         0.357856         2.219594
 H         4.964112         0.998774         1.805364
 H         2.123855         3.055091        -0.149621
 H         3.264736         2.439988        -1.389728
 H         1.247743         0.968891        -1.927645
 H         3.949934        -0.249940        -1.532428
