19
Iteration:  2061
 C        -0.113176        -0.459569         0.250139
 C         1.377733        -0.061260         0.027899
 C         2.067361         0.788330         1.224567
 C         3.304141         1.179195         0.425088
 O         4.486252         1.566685         1.052077
 C         2.643989         2.133412        -0.578617
 C         1.925250         0.830030        -1.108982
 C         3.141780        -0.048235        -0.761036
 O         2.396948        -1.183873        -0.323211
 H        -0.294592        -1.447253         0.655201
 H        -0.628903         0.211231         1.069402
 H        -0.562606        -0.451166        -0.748297
 H         1.461178         1.742486         1.245531
 H         2.277216         0.127493         2.183357
 H         4.344919         1.138762         1.989059
 H         2.124972         2.953169        -0.016542
 H         3.446615         2.595651        -1.179946
 H         1.513227         0.664117        -2.072765
 H         3.984744        -0.249704        -1.354910
