19
Iteration:  2510charge 0 multiplicity 1
 C        -0.026462        -0.493551         0.280207
 C         1.388590        -0.030928         0.114665
 C         2.059972         0.741339         1.204781
 C         3.328080         1.129518         0.403768
 O         4.482677         1.535118         1.073624
 C         2.592704         2.113215        -0.539494
 C         1.929973         0.851486        -1.103212
 C         3.152684        -0.059932        -0.890638
 O         2.353777        -1.086079        -0.322448
 H        -0.268305        -1.145191         1.114538
 H        -0.602175         0.503288         0.474454
 H        -0.367297        -0.941631        -0.644168
 H         1.591305         1.616214         1.426432
 H         2.130503         0.144216         2.146228
 H         4.496232         1.128300         1.886506
 H         1.978441         2.943190        -0.138631
 H         3.203906         2.800651        -1.088856
 H         1.389554         0.733135        -2.017043
 H         3.921669        -0.228844        -1.636459
