19
Iteration:  3930charge 0 multiplicity 1
 C        -0.018501        -0.494150         0.266367
 C         1.388118        -0.010350         0.077953
 C         2.102838         0.721009         1.258858
 C         3.279242         1.166245         0.393810
 O         4.471868         1.472845         1.025300
 C         2.614529         2.114254        -0.636466
 C         1.946038         0.823215        -1.143520
 C         3.152743        -0.002503        -0.772963
 O         2.356807        -1.104919        -0.222610
 H        -0.316740        -1.583091         0.303860
 H        -0.529115         0.043461         1.144183
 H        -0.676767        -0.188159        -0.510043
 H         1.483469         1.709482         1.614280
 H         2.317755        -0.064042         1.996212
 H         4.420249         2.366995         1.571051
 H         1.811189         2.745399        -0.208974
 H         3.232720         2.618667        -1.400937
 H         1.451113         0.575968        -2.067706
 H         3.933167        -0.177104        -1.426370
