19
Iteration:   910
 C        -0.084148        -0.507114         0.026326
 C         1.367674         0.015332         0.065119
 C         2.049222         0.852409         1.274157
 C         3.318723         1.186396         0.386517
 O         4.562516         1.254633         1.011444
 C         2.612961         2.238534        -0.662349
 C         1.958112         0.810121        -1.155526
 C         3.144017        -0.014684        -0.631884
 O         2.290980        -1.095957        -0.058004
 H        -0.209614        -1.519295         0.543943
 H        -0.787177         0.258237         0.290578
 H        -0.291367        -0.543063        -0.984337
 H         1.658898         1.774407         1.650633
 H         2.305556         0.246513         2.081025
 H         4.397384         2.070053         1.624062
 H         1.974449         3.018696        -0.161650
 H         3.252551         2.491964        -1.534462
 H         1.492936         0.692524        -2.134523
 H         4.112501        -0.258153        -1.064382
