19
Iteration:  4700charge 0 multiplicity 1
 C        -0.057235        -0.524746         0.225488
 C         1.399878        -0.041507         0.104274
 C         2.021027         0.757968         1.324149
 C         3.235992         1.189890         0.356247
 O         4.550974         1.236284         0.902658
 C         2.514868         2.171314        -0.611944
 C         1.935663         0.878877        -1.111313
 C         3.169548         0.106486        -0.744237
 O         2.438334        -1.035356        -0.219182
 H        -0.646049         0.476475         0.112144
 H        -0.335108        -1.327493        -0.511794
 H        -0.303665        -0.794285         1.336554
 H         1.438766         1.594383         1.768081
 H         2.491846         0.175546         2.259752
 H         4.619620         1.703984         1.687114
 H         1.926030         2.810223         0.062764
 H         3.107659         2.607204        -1.502671
 H         1.210221         0.898314        -2.017819
 H         3.990522        -0.074211        -1.461484
