19
Iteration:  3868
 C        -0.031074        -0.603285         0.175342
 C         1.369520         0.033050         0.117634
 C         2.088486         0.675984         1.308155
 C         3.255549         1.229778         0.382832
 O         4.524612         1.325838         0.960585
 C         2.601408         2.177991        -0.672909
 C         1.876891         0.888426        -1.148163
 C         3.112314         0.035255        -0.700501
 O         2.377448        -1.020640        -0.159776
 H         0.013535        -1.392897         0.885382
 H        -0.733744         0.132654         0.603131
 H        -0.114088        -0.914174        -0.876774
 H         1.515716         1.395816         1.676793
 H         2.280693        -0.006071         2.195422
 H         4.657284         2.332704         1.197293
 H         1.925234         2.990099        -0.360208
 H         3.361638         2.529206        -1.367080
 H         1.158131         0.716935        -1.961051
 H         4.184629        -0.164712        -1.166157
