19
Iteration:   121
 C        -0.058970        -0.398754         0.286895
 C         1.344731         0.005516         0.055602
 C         2.034707         0.735176         1.171121
 C         3.230641         1.160172         0.388620
 O         4.345773         1.429924         1.220537
 C         2.859814         2.167344        -0.745655
 C         2.064663         0.860890        -1.258584
 C         3.157681        -0.049403        -0.776810
 O         2.246902        -1.061676        -0.161133
 H        -0.036548        -1.126187         1.004835
 H        -0.661583         0.399883         0.702308
 H        -0.447362        -0.691634        -0.626441
 H         1.362908         1.456527         1.548991
 H         2.104516        -0.013841         1.899279
 H         4.830082         0.534398         1.464645
 H         2.427262         3.085062        -0.344884
 H         3.672250         2.386461        -1.431384
 H         1.618027         0.508914        -2.181124
 H         3.998558        -0.442070        -1.248473
