19
Iteration:   968charge 0 multiplicity 1
 C        -0.143930        -0.388161         0.232369
 C         1.350730        -0.002522        -0.027911
 C         2.079299         0.742162         1.246542
 C         3.300293         1.211226         0.440209
 O         4.501899         1.477267         1.122698
 C         2.708322         2.020683        -0.593502
 C         2.038988         0.788503        -1.191610
 C         3.140194        -0.085053        -0.740363
 O         2.295221        -1.102744        -0.281277
 H        -0.376292        -0.669420         1.319899
 H        -0.703464         0.557844         0.116343
 H        -0.408782        -1.306249        -0.409681
 H         1.459663         1.514179         1.333774
 H         2.353129         0.259119         2.199803
 H         4.347430         2.140455         1.767597
 H         2.119265         2.884597        -0.181877
 H         3.239538         2.675467        -1.313632
 H         1.457099         0.765579        -2.162558
 H         4.034421        -0.510737        -1.335814
