19
Iteration:  2063charge 0 multiplicity 1
 C        -0.114804        -0.444058         0.249015
 C         1.375175        -0.066273         0.027965
 C         2.075034         0.787669         1.222530
 C         3.302898         1.178523         0.427988
 O         4.481416         1.565701         1.062815
 C         2.637332         2.138855        -0.555517
 C         1.923754         0.829243        -1.122907
 C         3.135865        -0.065820        -0.763493
 O         2.399673        -1.182838        -0.320551
 H        -0.214601        -1.420238         0.702203
 H        -0.598406         0.154542         1.043684
 H        -0.547035        -0.451838        -0.716799
 H         1.408760         1.757391         1.234101
 H         2.330129         0.194393         2.069706
 H         4.376185         1.153363         1.904964
 H         2.107927         2.958534        -0.037317
 H         3.433041         2.556164        -1.209274
 H         1.517343         0.685839        -2.132510
 H         4.027850        -0.259314        -1.379063
