19
Iteration:  3823charge 0 multiplicity 1
 C        -0.047432        -0.420303         0.288684
 C         1.396806        -0.069118         0.110497
 C         2.088726         0.654666         1.254166
 C         3.240836         1.120703         0.428969
 O         4.494584         1.557262         0.978910
 C         2.529822         2.135094        -0.647236
 C         1.940292         0.883747        -1.155844
 C         3.196403         0.001908        -0.738646
 O         2.377312        -1.129980        -0.289753
 H        -0.315843        -0.434832         1.367538
 H        -0.641842         0.465803        -0.092862
 H        -0.229072        -1.323430        -0.285219
 H         1.673173         1.340223         1.842465
 H         2.412900        -0.192540         1.932074
 H         4.458104         1.405380         2.026057
 H         1.844198         2.885118        -0.223356
 H         3.254269         2.614642        -1.298255
 H         1.421292         0.732895        -2.092179
 H         3.988402        -0.256510        -1.509072
