19
Iteration:  2641charge 0 multiplicity 1
 C        -0.038562        -0.543700         0.283271
 C         1.370067         0.005366         0.080924
 C         2.051458         0.676456         1.237138
 C         3.248189         1.119510         0.431515
 O         4.447606         1.457741         1.000990
 C         2.658358         2.166139        -0.667562
 C         1.917249         0.947511        -1.166291
 C         3.187283         0.032825        -0.722362
 O         2.371541        -1.062423        -0.288187
 H        -0.008238        -1.573947         0.734223
 H        -0.545685         0.204089         1.036935
 H        -0.667734        -0.607933        -0.626319
 H         1.599500         1.553594         1.674920
 H         2.394693        -0.075087         2.037061
 H         4.468254         1.197204         2.004284
 H         2.010272         2.962866        -0.276552
 H         3.560299         2.384803        -1.259101
 H         1.201329         0.785991        -1.976468
 H         4.111196        -0.248216        -1.295014
