19
Iteration:   228
 C        -0.114758        -0.293100         0.160320
 C         1.338567        -0.034916         0.023476
 C         2.025193         0.755503         1.218984
 C         3.271120         1.134217         0.420620
 O         4.482807         1.384017         1.128211
 C         2.703015         2.140128        -0.570565
 C         1.984825         0.834881        -1.171172
 C         3.234820        -0.065096        -0.664158
 O         2.311756        -1.172953        -0.262930
 H        -0.443608        -0.633880         1.147361
 H        -0.731263         0.570465        -0.241798
 H        -0.389877        -1.313178        -0.459437
 H         1.474015         1.695657         1.433486
 H         2.138260         0.206872         2.135194
 H         4.681156         2.338911         0.779797
 H         2.125027         2.953217        -0.058892
 H         3.465901         2.592102        -1.242782
 H         1.491590         0.762186        -2.095121
 H         4.122137        -0.468704        -1.059623
