19
Iteration:   461charge 0 multiplicity 1
 C        -0.031468        -0.468108        -0.011389
 C         1.323855         0.013379         0.144414
 C         1.981993         0.798451         1.238749
 C         3.334777         1.169426         0.395686
 O         4.602476         1.340411         1.051198
 C         2.660026         2.137708        -0.628590
 C         1.925520         0.888719        -1.078824
 C         3.139566        -0.031601        -0.683042
 O         2.279567        -1.099603        -0.162045
 H        -0.279276        -1.244540         0.805923
 H        -0.672544         0.470480         0.064262
 H        -0.063421        -1.014567        -0.886964
 H         1.528036         1.778699         1.557834
 H         2.111800         0.183912         2.152576
 H         4.536643         1.745171         1.890959
 H         2.099102         2.982962        -0.213624
 H         3.199690         2.646411        -1.427385
 H         1.454698         0.694616        -2.170244
 H         3.923077        -0.444859        -1.331470
