19
Iteration:  2977charge 0 multiplicity 1
 C        -0.023530        -0.500334         0.183145
 C         1.369459         0.021517         0.012443
 C         2.202933         0.643454         1.239668
 C         3.295287         1.176752         0.393973
 O         4.521251         1.487070         0.997881
 C         2.529786         2.104573        -0.523020
 C         1.878664         0.903765        -1.154237
 C         3.117375         0.098707        -0.721538
 O         2.323463        -1.083972        -0.210177
 H        -0.299590        -0.808848         1.219056
 H        -0.833385         0.288301        -0.065732
 H         0.032872        -1.400827        -0.410085
 H         1.708215         1.289506         1.958950
 H         2.411228        -0.252926         1.831984
 H         4.539032         0.957894         1.887950
 H         1.904867         2.902704        -0.049062
 H         3.119015         2.609288        -1.323979
 H         1.580034         0.650482        -2.166067
 H         3.842561        -0.303895        -1.467473
