19
Iteration:   791charge 0 multiplicity 1
 C        -0.165435        -0.358291         0.089738
 C         1.310214         0.034151         0.045847
 C         2.045884         0.695539         1.327123
 C         3.242746         1.151125         0.448609
 O         4.573611         1.399812         1.025237
 C         2.656285         2.123063        -0.695648
 C         1.996191         0.801034        -1.177358
 C         3.147801        -0.009513        -0.637065
 O         2.377237        -1.079748        -0.200440
 H        -0.248808        -0.682576         1.229349
 H        -0.825097         0.430950        -0.275886
 H        -0.301630        -1.219767        -0.478963
 H         1.491523         1.493956         1.849267
 H         2.313456        -0.109981         2.006761
 H         4.430682         1.761785         1.852545
 H         1.994118         2.911747        -0.379365
 H         3.455689         2.353432        -1.402114
 H         1.531519         0.630374        -2.130993
 H         4.102738        -0.185274        -1.096048
