19
Iteration:  3770charge 0 multiplicity 1
 C        -0.078339        -0.500439         0.175289
 C         1.368615        -0.055727         0.100062
 C         2.126283         0.740574         1.235870
 C         3.301712         1.158527         0.404966
 O         4.494864         1.604588         1.077073
 C         2.616333         2.115860        -0.552869
 C         1.878737         0.797195        -1.124397
 C         3.122124        -0.021597        -0.772683
 O         2.353033        -1.105319        -0.227448
 H        -0.190436        -0.824108         1.211008
 H        -0.747976         0.367739         0.027260
 H        -0.097580        -1.325062        -0.552207
 H         1.479586         1.672605         1.427373
 H         2.205702         0.175510         2.280538
 H         5.270889         1.118642         0.575597
 H         2.064976         2.841152         0.049829
 H         3.218374         2.578925        -1.325795
 H         1.311177         0.643025        -2.027261
 H         3.850827        -0.292782        -1.660341
