19
Iteration:  4219
 C        -0.057148        -0.616622         0.205703
 C         1.338432        -0.006414         0.152997
 C         2.056480         0.768297         1.222610
 C         3.321426         1.097690         0.337615
 O         4.530939         1.643743         1.092590
 C         2.717359         2.079283        -0.626385
 C         1.869980         0.899065        -1.186190
 C         3.114994        -0.029305        -0.758483
 O         2.262825        -1.056361        -0.175670
 H         0.018394        -1.645946         0.533160
 H        -0.571715        -0.163089         1.048276
 H        -0.568891        -0.528791        -0.917667
 H         1.577595         1.697468         1.462765
 H         2.417188         0.129819         2.112389
 H         5.071706         0.919088         1.116616
 H         2.271061         2.969212        -0.172312
 H         3.349200         2.544156        -1.407183
 H         1.380552         0.705003        -2.105399
 H         3.969225        -0.564700        -1.322305
