19
Iteration:  4627charge 0 multiplicity 1
 C        -0.058407        -0.497476         0.272157
 C         1.393529        -0.006886         0.089123
 C         2.074781         0.657389         1.318494
 C         3.301306         1.175925         0.406240
 O         4.522025         1.529326         0.943536
 C         2.653973         2.137773        -0.586655
 C         1.885727         0.909610        -1.103964
 C         3.148402        -0.058714        -0.756145
 O         2.324523        -1.106336        -0.328906
 H        -0.528567         0.187063         1.058241
 H        -0.763964        -0.474096        -0.594829
 H        -0.011607        -1.540591         0.639154
 H         1.414624         1.417035         1.761246
 H         2.297280        -0.101835         2.056135
 H         4.340339         1.830840         1.808790
 H         2.032035         2.953011        -0.132185
 H         3.391784         2.425547        -1.366364
 H         1.485313         0.934831        -2.184481
 H         3.968920        -0.457105        -1.371158
