19
Iteration:  1331charge 0 multiplicity 1
 C        -0.146855        -0.424256         0.020896
 C         1.369508         0.021422         0.076677
 C         2.035551         0.782247         1.240661
 C         3.323559         1.074203         0.419279
 O         4.538226         1.468727         0.933089
 C         2.580468         2.136555        -0.491086
 C         1.912998         0.825866        -1.030393
 C         3.228338        -0.002925        -0.732324
 O         2.341889        -1.121872        -0.128605
 H        -0.393804        -0.904715         0.965575
 H        -0.722701         0.549567        -0.292707
 H        -0.305068        -1.103767        -0.934621
 H         1.689762         1.721814         1.543157
 H         2.127882         0.085380         2.175968
 H         4.973610         0.937091         1.645876
 H         1.980628         3.015673        -0.035981
 H         3.338564         2.500739        -1.254182
 H         1.487416         0.646779        -2.065833
 H         4.057949        -0.203213        -1.471220
