19
Iteration:  1888
 C        -0.059806        -0.457271         0.144013
 C         1.310151         0.021304         0.117892
 C         2.061758         0.605948         1.259204
 C         3.250832         1.138711         0.428568
 O         4.515164         1.473848         0.969940
 C         2.616967         2.162818        -0.665455
 C         1.907689         0.861508        -1.116800
 C         3.136980         0.026227        -0.711065
 O         2.428399        -1.065669        -0.168321
 H        -0.220285        -1.406469         0.779781
 H        -0.765507         0.480347         0.288196
 H        -0.328435        -0.758280        -0.893283
 H         1.635574         1.462913         1.947493
 H         2.217046        -0.103927         1.973765
 H         4.628018         1.264383         1.884031
 H         2.041922         3.121075        -0.465435
 H         3.487209         2.368750        -1.378041
 H         1.412972         0.577689        -1.983351
 H         4.059910        -0.092670        -1.267388
