19
Iteration:  3271charge 0 multiplicity 1
 C        -0.054742        -0.551121         0.251189
 C         1.370544        -0.013035         0.072807
 C         2.133583         0.692377         1.251739
 C         3.247772         1.161362         0.416694
 O         4.450745         1.478691         1.042674
 C         2.566136         2.228502        -0.686652
 C         1.917518         0.862549        -1.171754
 C         3.170641         0.043913        -0.722614
 O         2.353954        -1.054012        -0.190778
 H         0.184253        -1.632406         0.634154
 H        -0.677990         0.066826         0.944381
 H        -0.749248        -0.766664        -0.702756
 H         1.592875         1.426283         1.710783
 H         2.505522        -0.101746         1.933570
 H         5.028621         0.595693         1.122655
 H         2.102487         3.121524        -0.220528
 H         3.283462         2.545908        -1.442334
 H         1.486975         0.914804        -2.133232
 H         4.103798        -0.296472        -1.223377
