19
Iteration:  1789charge 0 multiplicity 1
 C        -0.013707        -0.462384         0.173979
 C         1.385825         0.026184         0.047270
 C         2.135712         0.709411         1.267997
 C         3.302546         1.125674         0.364605
 O         4.440464         1.551275         1.136505
 C         2.594466         2.150971        -0.595365
 C         1.957715         0.835539        -1.163631
 C         3.138747        -0.091209        -0.787045
 O         2.312854        -1.068129        -0.229645
 H        -0.151234        -0.947151         1.188188
 H        -0.664630         0.540289         0.198663
 H        -0.481975        -1.039795        -0.700242
 H         1.635053         1.619634         1.731789
 H         2.234437        -0.039007         1.979215
 H         4.924818         0.832072         1.397746
 H         1.772242         2.757601        -0.104662
 H         3.290540         2.605742        -1.351120
 H         1.396476         0.667467        -2.032557
 H         3.934960        -0.497765        -1.321684
