19
Iteration:  4629charge 0 multiplicity 1
 C        -0.066885        -0.500983         0.275647
 C         1.396885        -0.003526         0.100342
 C         2.069373         0.660634         1.309421
 C         3.295465         1.190338         0.407102
 O         4.530252         1.526562         0.945216
 C         2.662028         2.122131        -0.597248
 C         1.887802         0.914694        -1.114241
 C         3.145972        -0.062309        -0.754928
 O         2.317798        -1.109879        -0.332516
 H        -0.529161         0.100031         1.067416
 H        -0.699933        -0.491085        -0.630335
 H        -0.022680        -1.597248         0.713634
 H         1.418064         1.437669         1.742654
 H         2.294308        -0.047912         2.027163
 H         4.283701         1.828254         1.792415
 H         2.085806         2.921117        -0.072478
 H         3.399811         2.476816        -1.305880
 H         1.463192         1.009860        -2.107391
 H         4.012523        -0.402700        -1.365261
