19
Iteration:  1592
 C        -0.090845        -0.434135         0.080093
 C         1.314242         0.047699         0.102484
 C         2.083957         0.594638         1.327422
 C         3.266653         1.135935         0.464988
 O         4.470439         1.461893         0.940755
 C         2.655540         2.124741        -0.658777
 C         1.971691         0.892016        -1.127740
 C         3.144963         0.007421        -0.681762
 O         2.385838        -1.068998        -0.185292
 H        -0.303082        -0.868423         1.022313
 H        -0.927025         0.347996         0.110141
 H        -0.278304        -1.187864        -0.750114
 H         1.636365         1.573616         1.939180
 H         2.614387        -0.266206         1.931307
 H         4.518232         1.230112         1.811087
 H         1.922667         2.994854        -0.491152
 H         3.476360         2.621552        -1.255012
 H         1.389368         0.806630        -2.042780
 H         4.055620        -0.203922        -1.256546
