19
Iteration:  1714charge 0 multiplicity 1
 C        -0.025933        -0.463403         0.093704
 C         1.343702         0.049844         0.099146
 C         2.107171         0.726260         1.244557
 C         3.310908         1.101135         0.369153
 O         4.490983         1.512608         1.045227
 C         2.615928         2.150657        -0.566774
 C         1.906873         0.849544        -1.116862
 C         3.176909        -0.053576        -0.782253
 O         2.301771        -1.099805        -0.194444
 H        -0.241991        -0.940838         1.037473
 H        -0.838507         0.281106         0.215099
 H        -0.124568        -1.166380        -0.693309
 H         1.593462         1.644666         1.703286
 H         2.428256        -0.143608         1.979610
 H         4.535641         1.213163         2.032071
 H         2.085191         2.925711         0.031367
 H         3.276860         2.610799        -1.336125
 H         1.464113         0.905291        -2.052730
 H         3.869682        -0.504010        -1.432836
