19
Iteration:   538
 C        -0.130767        -0.359555         0.215920
 C         1.359499         0.055469         0.039849
 C         2.019206         0.759578         1.210630
 C         3.324296         1.105962         0.386028
 O         4.459524         1.417398         1.201993
 C         2.694878         2.081286        -0.650025
 C         2.062704         0.815854        -1.167510
 C         3.180477        -0.074749        -0.713621
 O         2.310682        -1.132248        -0.266833
 H        -0.088495        -1.353541         0.795534
 H        -0.706698         0.463345         0.710012
 H        -0.543964        -0.378809        -0.725531
 H         1.313481         1.656454         1.630707
 H         2.291475         0.014557         2.024662
 H         4.355939         2.447931         1.320913
 H         2.016704         2.849280        -0.236605
 H         3.255798         2.578988        -1.456962
 H         1.614039         0.649996        -2.239421
 H         4.007228        -0.354650        -1.447599
