19
Iteration:   225charge 0 multiplicity 1
 C        -0.121469        -0.283376         0.143370
 C         1.318113        -0.054108         0.021830
 C         2.018317         0.731170         1.231334
 C         3.256768         1.115163         0.433948
 O         4.514229         1.390131         1.117465
 C         2.692161         2.149299        -0.596713
 C         1.985784         0.858717        -1.159796
 C         3.237849        -0.056039        -0.651171
 O         2.322795        -1.155457        -0.255479
 H        -0.521824        -0.664792         1.127321
 H        -0.643646         0.571983        -0.240128
 H        -0.277188        -1.236868        -0.438133
 H         1.385246         1.686315         1.442874
 H         2.132423         0.131271         2.216607
 H         4.728846         2.300821         0.827062
 H         2.072195         2.951965        -0.159939
 H         3.456701         2.518770        -1.320764
 H         1.386801         0.766655        -2.080753
 H         4.198241        -0.568664        -1.046741
