19
Iteration:    96charge 0 multiplicity 1
 C        -0.095530        -0.367438         0.208595
 C         1.304746         0.089478        -0.027895
 C         2.079210         0.859636         1.215823
 C         3.331198         1.066401         0.420514
 O         4.403011         1.478359         1.306791
 C         2.720582         2.006419        -0.725296
 C         2.013011         0.859262        -1.152646
 C         3.206049        -0.133920        -0.736406
 O         2.264299        -1.097933        -0.273638
 H         0.048613        -0.899162         1.163772
 H        -0.776843         0.447796         0.459308
 H        -0.584363        -0.985095        -0.690136
 H         1.600446         1.798837         1.501661
 H         1.991019         0.165474         2.033233
 H         5.262581         1.051582         1.079346
 H         2.159284         2.838335        -0.226134
 H         3.227949         2.383632        -1.652437
 H         1.528081         0.795563        -2.096048
 H         4.108484        -0.488006        -1.339301
