19
Iteration:  2119charge 0 multiplicity 1
 C        -0.082650        -0.504800         0.168712
 C         1.371494        -0.070764         0.075580
 C         2.044314         0.690878         1.251987
 C         3.272500         1.193736         0.433869
 O         4.516888         1.559799         1.016121
 C         2.656784         2.124635        -0.611479
 C         1.918372         0.922305        -1.080582
 C         3.178187        -0.035406        -0.727272
 O         2.338402        -1.108849        -0.235424
 H        -0.293329        -0.990740         1.120167
 H        -0.642349         0.400840        -0.024302
 H        -0.354932        -1.090071        -0.686627
 H         1.386120         1.484732         1.855506
 H         2.206263        -0.049924         2.061529
 H         4.832616         0.736777         1.287045
 H         2.040121         2.930018        -0.241845
 H         3.371089         2.478311        -1.367938
 H         1.321313         0.972656        -2.033498
 H         4.100841        -0.177027        -1.401107
