19
Iteration:  1993charge 0 multiplicity 1
 C        -0.064098        -0.533575         0.133431
 C         1.367583        -0.017007         0.077147
 C         2.067043         0.787309         1.245604
 C         3.316987         1.205082         0.453231
 O         4.558325         1.483407         1.007606
 C         2.572867         2.098230        -0.540647
 C         1.869364         0.827256        -1.114646
 C         3.164493        -0.012434        -0.737107
 O         2.370650        -1.046822        -0.237829
 H        -0.322155        -1.049711         1.028514
 H        -0.711219         0.352040         0.244519
 H        -0.186381        -1.068281        -0.835501
 H         1.496113         1.604623         1.304144
 H         2.048854         0.088161         2.124671
 H         4.722681         0.847731         1.636403
 H         1.980974         2.943429        -0.117745
 H         3.328650         2.371536        -1.274810
 H         1.272774         0.735949        -2.031735
 H         3.939520        -0.310336        -1.410031
