19
Iteration:  4070
 C        -0.020207        -0.503798         0.234881
 C         1.403614         0.014893         0.100981
 C         2.019827         0.772449         1.217229
 C         3.308569         1.142062         0.360926
 O         4.516775         1.477322         1.028334
 C         2.530624         2.107932        -0.569077
 C         1.917266         0.874495        -1.140505
 C         3.125282        -0.025934        -0.777323
 O         2.426400        -1.079276        -0.241120
 H        -0.320803        -0.374448         1.385652
 H        -0.706652         0.160860        -0.392025
 H        -0.126700        -1.541803         0.041135
 H         1.496829         1.717533         1.450080
 H         2.348128         0.142244         1.998228
 H         4.685762         0.755510         1.701947
 H         1.731440         2.764076        -0.175572
 H         3.171197         2.705445        -1.240049
 H         1.204586         0.766481        -2.017514
 H         3.971032        -0.293588        -1.288969
