19
Iteration:  1800
 C        -0.091442        -0.450568         0.217630
 C         1.334951         0.073581         0.119323
 C         2.135597         0.624507         1.264904
 C         3.295317         1.197067         0.399463
 O         4.383169         1.542221         1.118055
 C         2.681646         2.100777        -0.688861
 C         1.983421         0.804903        -1.157614
 C         3.170879        -0.023821        -0.749299
 O         2.329266        -1.070580        -0.263838
 H        -0.149722        -1.259589         1.017805
 H        -0.877863         0.408327         0.479732
 H        -0.342637        -1.025174        -0.745932
 H         1.654315         1.491397         1.817300
 H         2.473621        -0.091374         1.954457
 H         4.840015         0.653246         1.271954
 H         1.990165         2.942299        -0.307353
 H         3.276029         2.669116        -1.456475
 H         1.533837         0.784109        -2.086998
 H         4.033854        -0.275076        -1.288171
