19
Iteration:   224charge 0 multiplicity 1
 C        -0.125411        -0.285468         0.136156
 C         1.315516        -0.058118         0.023084
 C         2.013552         0.722743         1.237062
 C         3.253910         1.107880         0.439584
 O         4.524821         1.394050         1.112521
 C         2.687526         2.150941        -0.606407
 C         1.987740         0.866229        -1.154286
 C         3.236556        -0.054138        -0.647095
 O         2.326228        -1.147099        -0.251943
 H        -0.539599        -0.657637         1.116054
 H        -0.619863         0.572098        -0.240256
 H        -0.239976        -1.178024        -0.430069
 H         1.367748         1.656656         1.446503
 H         2.131717         0.113067         2.220997
 H         4.747454         2.262138         0.856904
 H         2.056725         2.948043        -0.203857
 H         3.444482         2.487006        -1.343631
 H         1.352170         0.770589        -2.091226
 H         4.210404        -0.583189        -1.044797
