19
Iteration:   969
 C        -0.141042        -0.385034         0.236267
 C         1.342880         0.004623        -0.026413
 C         2.079344         0.742239         1.253102
 C         3.304246         1.204463         0.441406
 O         4.502888         1.482465         1.129146
 C         2.711250         2.028994        -0.595283
 C         2.039781         0.777780        -1.195886
 C         3.148448        -0.085423        -0.755638
 O         2.293679        -1.098865        -0.282741
 H        -0.379691        -0.653512         1.275893
 H        -0.733442         0.570475         0.118065
 H        -0.397920        -1.335415        -0.406915
 H         1.451127         1.510864         1.362849
 H         2.344505         0.235152         2.215149
 H         4.349934         2.113662         1.757359
 H         2.095449         2.847522        -0.181861
 H         3.192716         2.650310        -1.329107
 H         1.463860         0.732760        -2.137565
 H         4.013011        -0.514651        -1.321666
