19
Iteration:  1571
 C        -0.050284        -0.450526         0.195179
 C         1.354841         0.008991         0.019941
 C         2.074147         0.669805         1.220251
 C         3.339480         1.197492         0.396170
 O         4.535719         1.473013         1.033812
 C         2.550801         2.113243        -0.562714
 C         1.965038         0.814475        -1.196085
 C         3.193435         0.005576        -0.724477
 O         2.274101        -1.081002        -0.195307
 H        -0.355879        -0.510863         1.188190
 H        -0.652994         0.462279        -0.096029
 H        -0.205085        -1.337492        -0.456860
 H         1.449883         1.520840         1.720216
 H         2.356063        -0.209437         1.946034
 H         4.303630         1.021926         1.934177
 H         2.049294         2.915255         0.041399
 H         3.283381         2.659561        -1.204734
 H         1.556161         0.811727        -2.186358
 H         4.089302        -0.161090        -1.297735
