19
Iteration:  3215
 C        -0.030271        -0.550490         0.205848
 C         1.344409        -0.023117         0.128759
 C         2.111106         0.629545         1.272798
 C         3.260316         1.168606         0.347949
 O         4.520668         1.497420         0.939029
 C         2.605524         2.189415        -0.610588
 C         1.919383         0.861043        -1.114446
 C         3.139144         0.091878        -0.722915
 O         2.327704        -1.071162        -0.220246
 H        -0.109212        -1.296022         1.119729
 H        -0.844859         0.119643         0.520261
 H        -0.366386        -0.978687        -0.884984
 H         1.613761         1.287342         1.962541
 H         2.370894        -0.183943         1.904649
 H         4.261611         1.351546         1.837156
 H         2.193802         3.093778        -0.111997
 H         3.403484         2.483608        -1.294514
 H         1.660180         0.813726        -2.118376
 H         4.006166        -0.155133        -1.342103
