19
Iteration:  4938
 C        -0.096369        -0.383349         0.270812
 C         1.418144        -0.012884         0.120261
 C         2.149928         0.595706         1.303643
 C         3.278810         1.133815         0.411458
 O         4.513682         1.540111         1.000240
 C         2.563747         2.070567        -0.495070
 C         1.904797         0.861851        -1.152377
 C         3.111561        -0.006338        -0.833869
 O         2.398933        -1.120583        -0.347049
 H        -0.797235         0.434243         0.480499
 H        -0.433992        -0.941019        -0.617328
 H        -0.285103        -1.078164         1.202534
 H         1.442742         1.312210         1.873205
 H         2.484111        -0.204219         2.123294
 H         4.720953         2.488470         0.991479
 H         1.974311         2.874925         0.095296
 H         3.170735         2.492886        -1.381837
 H         1.170429         0.817369        -2.020260
 H         3.949050        -0.272910        -1.512960
