19
Iteration:  2745
 C        -0.082812        -0.493086         0.187156
 C         1.362594        -0.037914         0.072017
 C         2.156026         0.731310         1.245847
 C         3.307744         1.127544         0.443591
 O         4.512740         1.520040         1.046987
 C         2.558376         2.180695        -0.510635
 C         1.938336         0.823263        -1.129840
 C         3.133867         0.015877        -0.817659
 O         2.340739        -1.095766        -0.269615
 H        -0.422194        -0.798507         1.248838
 H        -0.861990         0.240676        -0.178662
 H        -0.152004        -1.401917        -0.543668
 H         1.536181         1.677241         1.615817
 H         2.258966         0.128904         2.114943
 H         5.237385         0.780503         1.079406
 H         1.799699         2.817944         0.058560
 H         3.018784         2.967619        -1.150625
 H         1.417335         0.635461        -2.049989
 H         3.984004        -0.251909        -1.330535
