19
Iteration:  1721
 C        -0.030777        -0.474160         0.107224
 C         1.373343         0.086662         0.083952
 C         2.103352         0.663969         1.235325
 C         3.299996         1.144961         0.403821
 O         4.509652         1.502585         1.005913
 C         2.625962         2.172601        -0.585448
 C         1.941675         0.841420        -1.096713
 C         3.094886        -0.068929        -0.717164
 O         2.312580        -1.070805        -0.197018
 H        -0.183578        -0.984135         1.085218
 H        -0.751798         0.383756        -0.161314
 H        -0.208660        -1.207513        -0.781236
 H         1.648590         1.408089         1.944944
 H         2.437171        -0.102554         1.821815
 H         4.360939         1.148792         1.972657
 H         1.953962         2.949688        -0.116692
 H         3.405948         2.572954        -1.274058
 H         1.325275         0.636493        -2.012611
 H         3.915552        -0.353130        -1.406263
