19
Iteration:  3593
 C        -0.087078        -0.587584         0.172646
 C         1.307650        -0.017902         0.061237
 C         2.101132         0.712273         1.282041
 C         3.223734         1.189257         0.429374
 O         4.481131         1.460264         0.985823
 C         2.582737         2.161000        -0.625420
 C         1.939258         0.865249        -1.153511
 C         3.148504         0.063723        -0.710370
 O         2.435079        -1.022827        -0.159644
 H        -0.308209        -0.591302         1.195938
 H        -0.780049         0.185161        -0.265213
 H        -0.269135        -1.480967        -0.352995
 H         1.681727         1.516704         1.883385
 H         2.601928        -0.154576         2.021442
 H         5.118562         0.704826         0.658839
 H         1.998247         2.957059        -0.193078
 H         3.336000         2.475887        -1.318437
 H         1.218112         0.769391        -2.003727
 H         4.108306        -0.251809        -1.125948
