19
Iteration:  2812charge 0 multiplicity 1
 O        -3.938615        -1.261907         0.937742
 C        -2.648097        -0.708559         1.160735
 C        -1.940437        -0.605918         2.628209
 C        -1.509119         0.789757         2.016868
 C        -2.789870         0.857303         1.154251
 C        -2.002938         1.421502        -0.036458
 C        -0.853538         0.517256         0.371818
 O         0.377449         0.641229        -0.307548
 C        -1.511893        -0.863736         0.152812
 H        -3.707103        -2.061838         0.369225
 H        -2.790887        -0.479422         3.335982
 H        -1.139503        -1.290636         2.940352
 H        -1.151900         1.624587         2.552312
 H        -3.666061         1.271388         1.529329
 H        -2.373776         1.225778        -1.111656
 H        -1.790465         2.520865        -0.124277
 H         0.584684         1.534424        -0.698008
 H        -1.851720        -1.037811        -0.900287
 H        -0.817852        -1.747645         0.317436
