19
Iteration:  3606charge 0 multiplicity 1
 O        -3.855662        -1.375365         0.977927
 C        -2.734830        -0.582967         1.170606
 C        -1.957078        -0.477378         2.463807
 C        -1.314146         0.733922         1.854027
 C        -2.759383         1.020370         1.120950
 C        -2.051655         1.374398        -0.196529
 C        -0.923329         0.394477         0.373895
 O         0.432780         0.659311        -0.001089
 C        -1.645329        -0.918536         0.236601
 H        -3.533623        -1.991968         0.258228
 H        -2.724184        -0.447710         3.254435
 H        -1.289482        -1.343017         2.689352
 H        -0.870232         1.574410         2.302884
 H        -3.661077         1.595964         1.390235
 H        -2.493276         0.968664        -1.088834
 H        -1.887326         2.444585        -0.141312
 H         0.367783         1.482783        -0.526126
 H        -2.062681        -0.912180        -0.782040
 H        -1.198123        -1.926619         0.414068
