19
Iteration:  3204charge 0 multiplicity 1
 O        -3.940848        -1.290020         1.123863
 C        -2.709969        -0.690583         1.148975
 C        -1.798572        -0.590305         2.448544
 C        -1.477383         0.743470         1.758167
 C        -2.791526         0.879945         1.047388
 C        -2.147045         1.536832        -0.210199
 C        -0.924669         0.527327         0.360345
 O         0.440915         0.598468         0.110187
 C        -1.532806        -0.902534         0.122848
 H        -3.982499        -2.163051         0.790560
 H        -2.401748        -0.347450         3.349349
 H        -1.129963        -1.450369         2.447618
 H        -1.006569         1.624305         2.304763
 H        -3.653374         1.461536         1.561404
 H        -2.444002         1.407636        -1.298019
 H        -1.868565         2.615505        -0.005985
 H         0.604648         0.938930        -0.766678
 H        -1.568529        -0.972590        -0.926965
 H        -0.723599        -1.580236         0.370338
