19
Iteration:   739
 O        -3.611921        -1.704140         1.084461
 C        -2.700076        -0.607090         1.130215
 C        -1.887128        -0.445601         2.426964
 C        -1.492246         0.866553         1.804448
 C        -2.811333         1.031392         1.127737
 C        -2.052660         1.636367        -0.091536
 C        -0.959851         0.497394         0.282524
 O         0.367341         0.444500         0.008175
 C        -1.684053        -0.733541         0.028471
 H        -4.536363        -1.359654         1.299116
 H        -2.782546        -0.306920         3.084849
 H        -1.031356        -1.111361         2.786404
 H        -0.949408         1.685865         2.434614
 H        -3.610829         1.538761         1.626632
 H        -2.569163         1.589802        -1.044414
 H        -1.808929         2.641615         0.170945
 H         0.682789        -0.501182        -0.011422
 H        -2.138139        -0.840902        -0.953611
 H        -1.036293        -1.617993         0.287687
