19
Iteration:  2105charge 0 multiplicity 1
 O        -3.860922        -1.462591         1.132563
 C        -2.686702        -0.624519         1.169048
 C        -1.933741        -0.514640         2.477646
 C        -1.548596         0.820621         1.836368
 C        -2.843737         0.942097         0.957727
 C        -2.019665         1.493634        -0.203939
 C        -0.917577         0.516811         0.349637
 O         0.445035         0.574214        -0.103100
 C        -1.513556        -0.845189         0.130563
 H        -3.836137        -2.139514         1.854458
 H        -2.662419        -0.292320         3.280717
 H        -1.017113        -1.090548         2.691162
 H        -1.107623         1.680100         2.383775
 H        -3.812828         1.287130         1.360686
 H        -2.435459         1.434277        -1.242679
 H        -1.772754         2.553420         0.015883
 H         1.085230         0.580888         0.638459
 H        -2.004204        -0.978046        -0.835644
 H        -0.972586        -1.768962         0.438710
