19
Iteration:  1083charge 0 multiplicity 1
 O        -3.861973        -1.473117         1.215942
 C        -2.751912        -0.627697         1.166148
 C        -1.705807        -0.726686         2.378582
 C        -1.370632         0.703664         1.818000
 C        -2.796123         0.966433         1.076851
 C        -2.162993         1.507912        -0.209946
 C        -0.968705         0.544284         0.316965
 O         0.446737         0.629419         0.126919
 C        -1.697227        -0.779237        -0.043670
 H        -4.590984        -1.102764         0.686451
 H        -2.125897        -0.687133         3.398196
 H        -0.907396        -1.466845         2.131116
 H        -0.953956         1.516196         2.272794
 H        -3.570806         1.469064         1.703452
 H        -2.424842         1.438028        -1.252531
 H        -1.844766         2.499038         0.205841
 H         0.762150         1.554530        -0.053901
 H        -1.974932        -0.657115        -1.113389
 H        -1.036047        -1.620860         0.184295
