19
Iteration:  3665charge 0 multiplicity 1
 O        -3.908967        -1.295516         1.011320
 C        -2.671647        -0.651836         1.123930
 C        -1.958918        -0.552754         2.490164
 C        -1.474072         0.733739         1.888028
 C        -2.774046         0.943690         1.077017
 C        -2.056562         1.456328        -0.136942
 C        -0.900649         0.456404         0.292677
 O         0.468200         0.713608         0.030714
 C        -1.542513        -0.917001         0.104746
 H        -3.948612        -1.901347         1.782809
 H        -2.767886        -0.495222         3.189649
 H        -1.225898        -1.324156         2.690572
 H        -0.993789         1.674351         2.294878
 H        -3.721933         1.311706         1.498583
 H        -2.481406         1.302622        -1.132254
 H        -1.829408         2.469764        -0.224446
 H         0.696392        -0.003121        -0.642082
 H        -2.064959        -1.105730        -0.896916
 H        -0.818313        -1.711066         0.364636
