19
Iteration:  4944charge 0 multiplicity 1
 O        -3.877128        -1.416956         1.005714
 C        -2.722243        -0.645443         1.169949
 C        -1.959936        -0.594370         2.410947
 C        -1.406588         0.762461         1.814710
 C        -2.755561         0.975790         1.119637
 C        -2.060950         1.555511        -0.176806
 C        -0.876827         0.495513         0.331946
 O         0.428464         0.604558        -0.013672
 C        -1.619281        -0.885768         0.064727
 H        -4.070572        -1.972414         1.784444
 H        -2.683312        -0.185946         3.141919
 H        -1.425620        -1.466567         2.755559
 H        -0.892397         1.378939         2.489269
 H        -3.579002         1.432194         1.784942
 H        -2.406467         1.438551        -1.162555
 H        -1.778854         2.588559         0.022091
 H         0.884414         0.958665         0.750834
 H        -1.932090        -1.014049        -0.998915
 H        -0.872740        -1.606604         0.396725
