19
Iteration:  4458
 O        -3.959133        -1.470584         1.070368
 C        -2.736741        -0.632585         1.123212
 C        -1.991907        -0.578611         2.520956
 C        -1.402880         0.794864         1.885574
 C        -2.746212         0.930840         1.069371
 C        -2.009147         1.555115        -0.191364
 C        -0.901364         0.536757         0.302445
 O         0.444470         0.637476         0.004393
 C        -1.529119        -0.850489         0.142324
 H        -4.107940        -1.767729         0.166257
 H        -2.670938        -0.069484         3.302558
 H        -1.364122        -1.477384         2.865625
 H        -0.963775         1.581495         2.460189
 H        -3.539366         1.542717         1.619329
 H        -2.232107         1.196278        -1.227173
 H        -1.811929         2.615182        -0.012542
 H         0.699974        -0.085266        -0.623009
 H        -1.865575        -1.117142        -0.824670
 H        -0.854375        -1.637216         0.525667
