19
Iteration:  4568charge 0 multiplicity 1
 O        -3.861964        -1.399899         1.013816
 C        -2.647207        -0.653586         1.191808
 C        -2.057693        -0.519966         2.533639
 C        -1.368420         0.714271         1.909032
 C        -2.655076         1.103553         1.102901
 C        -1.908069         1.388648        -0.162436
 C        -1.004491         0.445972         0.356106
 O         0.326945         0.756796        -0.008540
 C        -1.609274        -0.994097         0.079358
 H        -3.963994        -1.551957         0.031661
 H        -2.843254        -0.227237         3.269211
 H        -1.546956        -1.360731         3.122720
 H        -0.786267         1.439532         2.447917
 H        -3.561370         1.601145         1.436928
 H        -2.502104         1.119524        -1.046793
 H        -1.446529         2.337273        -0.252732
 H         0.345683         0.612209        -1.002932
 H        -1.937766        -1.159755        -0.936196
 H        -0.944554        -1.814170         0.403993
