19
Iteration:  1124
 O        -3.823329        -1.447939         0.945311
 C        -2.692245        -0.644415         1.153652
 C        -2.064281        -0.631530         2.642990
 C        -1.379694         0.658862         2.015538
 C        -2.677267         0.943149         1.198333
 C        -1.995743         1.524288         0.006286
 C        -0.911505         0.469423         0.337935
 O         0.256850         0.703805        -0.452705
 C        -1.479295        -0.854189         0.159456
 H        -4.110443        -1.427272         0.043253
 H        -2.872837        -0.387820         3.347641
 H        -1.490322        -1.467426         3.064189
 H        -0.865274         1.453061         2.691050
 H        -3.561158         1.569849         1.609285
 H        -2.700998         1.654873        -0.907437
 H        -1.542362         2.516044         0.239674
 H         0.461189         1.623648        -0.192408
 H        -1.810094        -1.120940        -0.849782
 H        -0.793601        -1.585599         0.563005
