19
Iteration:  3093charge 0 multiplicity 1
 O        -3.831874        -1.367918         1.137335
 C        -2.617600        -0.643627         1.125684
 C        -1.737857        -0.563114         2.393643
 C        -1.523891         0.822054         1.842754
 C        -2.827050         0.834116         1.032016
 C        -2.143593         1.399101        -0.213373
 C        -0.947297         0.575311         0.410469
 O         0.398745         0.529849         0.072469
 C        -1.631795        -0.835254         0.048569
 H        -4.388743        -0.669360         0.650714
 H        -2.285306        -0.684468         3.348318
 H        -0.857425        -1.184723         2.340687
 H        -1.267241         1.718679         2.368219
 H        -3.676057         1.314515         1.458798
 H        -2.245788         1.294012        -1.304588
 H        -2.018324         2.476778         0.017849
 H         1.128893         1.068198         0.493697
 H        -2.137793        -0.804991        -0.860956
 H        -0.925435        -1.674847         0.131140
