19
Iteration:   312charge 0 multiplicity 1
 O        -3.768295        -1.453323         0.760853
 C        -2.655548        -0.624840         1.190727
 C        -2.000742        -0.532983         2.665236
 C        -1.344440         0.735526         2.010674
 C        -2.723158         0.969069         1.291895
 C        -2.107473         1.526450         0.021768
 C        -0.917191         0.479472         0.344018
 O         0.246161         0.645750        -0.480224
 C        -1.517576        -0.982863         0.235216
 H        -4.118161        -1.297147        -0.075744
 H        -2.718740        -0.090314         3.362239
 H        -1.472556        -1.407252         3.097029
 H        -0.775263         1.412902         2.683947
 H        -3.490806         1.451476         1.866327
 H        -2.713688         1.339939        -0.816186
 H        -1.894691         2.587445         0.215997
 H         0.684001         1.499431        -0.354220
 H        -1.828898        -1.273758        -0.778283
 H        -0.873380        -1.629486         0.848582
