19
Iteration:  4089charge 0 multiplicity 1
 O        -4.016063        -1.206841         0.843748
 C        -2.759217        -0.652839         1.140205
 C        -1.923358        -0.577492         2.522835
 C        -1.394451         0.709092         1.956377
 C        -2.722383         0.797149         1.196276
 C        -2.065761         1.420901        -0.006233
 C        -0.902494         0.536068         0.406296
 O         0.415900         0.704855        -0.269306
 C        -1.494535        -0.847377         0.201913
 H        -3.709880        -2.017065         0.337821
 H        -2.705413        -0.483834         3.294911
 H        -1.334519        -1.443763         2.953079
 H        -0.893344         1.500023         2.434264
 H        -3.688013         1.197009         1.496405
 H        -2.329811         1.103531        -1.085437
 H        -1.942065         2.482578         0.221463
 H         1.095445         0.163535         0.238028
 H        -1.854274        -1.057817        -0.894571
 H        -0.648531        -1.505168         0.463638
