19
Iteration:  2169
 O        -3.945668        -1.322819         0.987945
 C        -2.616077        -0.684840         1.210605
 C        -1.947756        -0.505748         2.582465
 C        -1.457881         0.758711         1.866690
 C        -2.718811         0.841838         1.086828
 C        -2.093812         1.292814        -0.219569
 C        -0.859180         0.501136         0.345479
 O         0.272256         0.812039        -0.195773
 C        -1.385740        -0.949284         0.293403
 H        -4.406378        -0.583276         0.604986
 H        -2.778033        -0.169318         3.236271
 H        -1.350246        -1.339665         3.015318
 H        -1.092794         1.751992         2.305392
 H        -3.675523         1.390728         1.420979
 H        -2.436098         1.052406        -1.277829
 H        -1.890870         2.379517        -0.282382
 H         0.870422         0.030937        -0.039593
 H        -1.584615        -1.210472        -0.736823
 H        -0.683548        -1.664703         0.757268
