19
Iteration:  1192charge 0 multiplicity 1
 O        -3.935179        -1.269109         1.096763
 C        -2.652223        -0.722371         1.153482
 C        -1.775735        -0.688232         2.401782
 C        -1.405797         0.720595         1.826049
 C        -2.807881         0.860228         1.154476
 C        -2.124653         1.482480        -0.083512
 C        -0.935395         0.514090         0.309338
 O         0.449323         0.674746        -0.030306
 C        -1.641730        -0.817896         0.006391
 H        -3.991357        -2.276631         1.174479
 H        -2.372195        -0.541974         3.313439
 H        -0.998270        -1.466772         2.576346
 H        -0.993511         1.566338         2.244060
 H        -3.629810         1.300832         1.731410
 H        -2.528690         1.520509        -1.129041
 H        -1.859264         2.544624         0.219473
 H         0.627010         1.590775         0.201275
 H        -2.081578        -0.664894        -0.995529
 H        -1.029425        -1.731234         0.055204
