19
Iteration:  4303charge 0 multiplicity 1
 O        -3.856653        -1.420481         1.040288
 C        -2.692582        -0.586585         1.088778
 C        -1.918330        -0.545912         2.532004
 C        -1.422259         0.725609         1.859200
 C        -2.665551         0.991814         1.128174
 C        -2.055927         1.468842        -0.254273
 C        -0.959433         0.478103         0.369655
 O         0.349385         0.560299         0.062006
 C        -1.592696        -0.873499         0.049434
 H        -4.148567        -1.373678         0.075451
 H        -2.728126        -0.276942         3.238114
 H        -1.235605        -1.319271         2.823663
 H        -0.726887         1.411807         2.350971
 H        -3.576982         1.419674         1.657204
 H        -2.645173         1.314180        -1.131989
 H        -1.810528         2.574562        -0.304577
 H         0.805108         1.230733         0.642844
 H        -2.027146        -0.974827        -0.873297
 H        -0.859851        -1.632993         0.284687
