19
Iteration:   845
 O        -3.879294        -1.487302         0.994392
 C        -2.684983        -0.643606         1.180229
 C        -1.849927        -0.472018         2.482055
 C        -1.413814         0.848133         1.886347
 C        -2.746354         0.976125         1.143221
 C        -2.116123         1.391983        -0.141425
 C        -0.931303         0.480564         0.376233
 O         0.352146         0.686673        -0.137330
 C        -1.590026        -0.865987         0.208818
 H        -3.847308        -1.701171         0.018376
 H        -2.464220        -0.498370         3.350688
 H        -1.076805        -1.212704         2.653952
 H        -0.878678         1.616210         2.368683
 H        -3.628716         1.573713         1.475483
 H        -2.549634         1.276099        -1.141176
 H        -1.730737         2.462851        -0.066293
 H         0.923405        -0.058092         0.189080
 H        -2.040448        -0.902202        -0.778645
 H        -1.038212        -1.805481         0.265939
