19
Iteration:  2577charge 0 multiplicity 1
 O        -3.828197        -1.476567         1.223467
 C        -2.685132        -0.652249         1.085578
 C        -1.776766        -0.602547         2.340946
 C        -1.473149         0.882453         1.733664
 C        -2.779190         0.977027         1.146660
 C        -2.156329         1.518698        -0.223947
 C        -0.952800         0.561480         0.301340
 O         0.451302         0.446450         0.173781
 C        -1.655957        -0.777350         0.002298
 H        -4.404560        -1.402172         0.492405
 H        -2.230415        -0.683159         3.320213
 H        -0.950487        -1.309444         2.215984
 H        -1.161227         1.813286         2.337552
 H        -3.566985         1.246097         1.967839
 H        -2.583869         1.128449        -1.149694
 H        -1.927553         2.597415        -0.275974
 H         0.897705         1.045556         0.787039
 H        -2.080135        -0.728242        -0.999151
 H        -0.959625        -1.605873        -0.010268
