19
Iteration:  2553charge 0 multiplicity 1
 O        -3.845416        -1.448646         1.229085
 C        -2.683701        -0.631056         1.097482
 C        -1.694045        -0.577189         2.413549
 C        -1.406362         0.817065         1.800498
 C        -2.941812         0.969330         0.953275
 C        -2.107396         1.603153        -0.136277
 C        -0.961452         0.529418         0.357186
 O         0.369577         0.451280         0.089874
 C        -1.605356        -0.855450         0.027581
 H        -4.225889        -1.672811         0.334535
 H        -2.317204        -0.535384         3.305302
 H        -0.871731        -1.262650         2.499622
 H        -0.897994         1.473286         2.522663
 H        -3.980876         1.282928         1.310970
 H        -2.175814         1.669992        -1.190603
 H        -1.953302         2.533711         0.362430
 H         0.863910         1.261968         0.140970
 H        -1.890955        -0.862118        -1.017221
 H        -0.890488        -1.684371         0.149574
