19
Iteration:  4967charge 0 multiplicity 1
 O        -3.888799        -1.491699         1.075438
 C        -2.692379        -0.620100         1.065630
 C        -1.885283        -0.582983         2.389046
 C        -1.521981         0.800657         1.896692
 C        -2.840032         1.008580         1.038156
 C        -1.898923         1.552797        -0.096107
 C        -0.858054         0.449020         0.349856
 O         0.371305         0.535656         0.021152
 C        -1.592947        -0.842429         0.035741
 H        -4.189980        -1.354110         1.974268
 H        -2.491365        -0.647665         3.320388
 H        -1.154857        -1.369568         2.344868
 H        -1.032077         1.597601         2.388209
 H        -3.800609         1.367142         1.496889
 H        -2.379874         1.639101        -1.015013
 H        -1.543840         2.510026         0.289309
 H         0.590228         1.488007        -0.068876
 H        -1.922125        -0.852128        -1.026962
 H        -1.071654        -1.760562         0.270183
