19
Iteration:    98charge 0 multiplicity 1
 O        -3.945674        -1.311728         1.018682
 C        -2.642201        -0.692119         1.162127
 C        -1.877083        -0.527692         2.437248
 C        -1.365729         0.797780         1.796163
 C        -2.692005         0.883115         1.141032
 C        -2.191171         1.358701        -0.203779
 C        -0.950149         0.502428         0.302615
 O         0.421834         0.822982         0.039388
 C        -1.550737        -0.972793         0.149582
 H        -4.174000        -1.933424         1.705998
 H        -2.480200        -0.336031         3.316682
 H        -1.225978        -1.326762         2.804892
 H        -0.811879         1.631877         2.179913
 H        -3.531771         1.352425         1.599405
 H        -2.807326         1.150852        -1.133342
 H        -2.121988         2.412032        -0.160198
 H         0.933982         0.171964        -0.441027
 H        -1.904206        -1.055559        -0.878341
 H        -1.016620        -1.908575         0.327908
