19
Iteration:   704
 O        -3.657214        -1.737214         1.178305
 C        -2.725720        -0.686362         1.200941
 C        -1.877711        -0.482317         2.436427
 C        -1.511374         0.793539         1.814792
 C        -2.793821         1.031832         1.016224
 C        -1.943157         1.632664        -0.179086
 C        -0.949055         0.555657         0.352108
 O         0.383972         0.495113         0.029907
 C        -1.747327        -0.691033         0.061787
 H        -4.608922        -1.457106         1.022433
 H        -2.642615        -0.322809         3.217055
 H        -1.188105        -1.277169         2.811574
 H        -1.007834         1.600155         2.282585
 H        -3.629697         1.672557         1.475150
 H        -2.226624         1.471196        -1.177925
 H        -1.782305         2.724979         0.027842
 H         0.527537         0.227175        -0.921549
 H        -2.182943        -0.540714        -0.909592
 H        -1.050661        -1.568392         0.085736
