19
Iteration:  2307charge 0 multiplicity 1
 O        -3.883132        -1.389975         1.127360
 C        -2.754271        -0.631992         1.163904
 C        -2.021319        -0.514243         2.568090
 C        -1.400250         0.678522         1.833961
 C        -2.769653         0.909970         1.051514
 C        -2.053655         1.341808        -0.179950
 C        -0.824734         0.385056         0.341771
 O         0.473020         0.886426        -0.070048
 C        -1.515598        -0.990004         0.138451
 H        -4.347474        -1.093401         0.274588
 H        -2.754460        -0.051207         3.255490
 H        -1.545684        -1.368833         3.137562
 H        -0.920580         1.624044         2.307906
 H        -3.675266         1.586250         1.293687
 H        -2.526744         1.178787        -1.168776
 H        -1.759362         2.412599        -0.187833
 H         0.300026         1.272462        -0.951631
 H        -1.945079        -1.345525        -0.849240
 H        -0.931646        -1.792064         0.640266
