19
Iteration:  2335
 O        -3.941737        -1.391101         0.949976
 C        -2.750305        -0.672915         1.234089
 C        -1.929184        -0.538459         2.549263
 C        -1.331128         0.768348         1.812248
 C        -2.693436         0.988108         1.165129
 C        -2.086925         1.366668        -0.244424
 C        -0.890163         0.426196         0.392036
 O         0.324877         0.883712        -0.071968
 C        -1.492858        -1.020305         0.251289
 H        -4.100988        -1.119261        -0.005513
 H        -2.592096        -0.088842         3.299956
 H        -1.424042        -1.396315         2.966839
 H        -0.774544         1.516030         2.242708
 H        -3.482154         1.524085         1.558977
 H        -2.595872         0.944427        -1.138884
 H        -1.851361         2.394008        -0.571952
 H         0.798216         0.188586        -0.598162
 H        -1.922315        -1.306462        -0.691702
 H        -0.851224        -1.822836         0.653552
