19
Iteration:  3478charge 0 multiplicity 1
 O        -3.964804        -1.332138         1.044718
 C        -2.700445        -0.645176         1.115355
 C        -1.905781        -0.555978         2.518195
 C        -1.483188         0.818951         1.967895
 C        -2.791375         0.945831         1.015572
 C        -2.008991         1.416246        -0.171015
 C        -0.919909         0.505188         0.385752
 O         0.368666         0.745960        -0.144122
 C        -1.440878        -1.027413         0.234594
 H        -4.189375        -1.390889         0.125410
 H        -2.608245        -0.428171         3.345026
 H        -1.142545        -1.276866         2.835559
 H        -0.969181         1.565624         2.503993
 H        -3.640515         1.434719         1.519959
 H        -2.321889         1.186800        -1.231896
 H        -1.759231         2.455183        -0.190939
 H         0.925305        -0.052860        -0.152443
 H        -1.700357        -1.186613        -0.841754
 H        -0.806877        -1.891214         0.555919
