19
Iteration:  1878
 O        -3.938558        -1.368104         1.266929
 C        -2.720811        -0.664126         1.089559
 C        -1.899227        -0.600647         2.356666
 C        -1.469503         0.766917         1.851950
 C        -2.816613         0.936635         1.051731
 C        -2.061066         1.486055        -0.147323
 C        -0.876524         0.456566         0.377067
 O         0.454369         0.702088        -0.014000
 C        -1.528760        -0.909423         0.005346
 H        -3.852076        -2.242959         0.905375
 H        -2.569467        -0.479705         3.220924
 H        -1.142498        -1.412124         2.485671
 H        -0.775835         1.474107         2.390329
 H        -3.751751         1.426991         1.466755
 H        -2.450858         1.246276        -1.145204
 H        -1.772718         2.557676         0.037620
 H         0.704913         1.659168        -0.024266
 H        -1.966383        -0.895718        -1.023465
 H        -0.960228        -1.821421         0.298180
