19
Iteration:  1540
 O        -3.762773        -1.643523         1.101675
 C        -2.738534        -0.677908         1.212258
 C        -2.000587        -0.409330         2.514742
 C        -1.472449         0.867405         1.824326
 C        -2.768522         1.001306         1.026924
 C        -1.987611         1.479778        -0.174691
 C        -0.946743         0.502506         0.326362
 O         0.371642         0.667520        -0.169430
 C        -1.552937        -0.899771         0.161930
 H        -4.587744        -1.391986         1.471323
 H        -2.654523        -0.094975         3.342730
 H        -1.315258        -1.256953         2.820664
 H        -0.950611         1.688232         2.403383
 H        -3.651861         1.492034         1.495405
 H        -2.162977         1.492365        -1.244840
 H        -1.701657         2.524962         0.087779
 H         0.984021        -0.018890         0.201861
 H        -1.935750        -0.912636        -0.865724
 H        -0.907128        -1.760537         0.333182
