19
Iteration:   630
 O        -3.963601        -1.273339         0.899533
 C        -2.713933        -0.673485         1.156225
 C        -1.791757        -0.629793         2.577788
 C        -1.339295         0.676662         1.900604
 C        -2.718381         0.929932         1.188352
 C        -2.158997         1.240135        -0.171851
 C        -0.912355         0.483705         0.396122
 O         0.333112         0.937739        -0.152479
 C        -1.478350        -1.012357         0.219652
 H        -4.568533        -0.582045         0.695320
 H        -2.340327        -0.229491         3.402975
 H        -1.026879        -1.353646         2.816670
 H        -0.815055         1.439716         2.511245
 H        -3.571116         1.416674         1.539455
 H        -2.842836         0.871791        -0.954154
 H        -1.833176         2.254397        -0.342428
 H         0.310710         0.726053        -1.088850
 H        -1.771783        -1.124942        -0.774455
 H        -0.847109        -1.703263         0.710554
