19
Iteration:   167charge 0 multiplicity 1
 O        -3.812557        -1.489931         1.055142
 C        -2.709172        -0.650285         1.233039
 C        -1.983970        -0.505388         2.577635
 C        -1.436724         0.805288         1.846301
 C        -2.772825         0.943720         1.109790
 C        -2.096679         1.439161        -0.115899
 C        -0.911163         0.502894         0.330500
 O         0.352920         0.589444        -0.263116
 C        -1.496503        -0.837156         0.158527
 H        -3.970668        -1.553231         0.056378
 H        -2.659429        -0.169589         3.380529
 H        -1.365376        -1.299570         2.971782
 H        -0.859663         1.556016         2.438763
 H        -3.611873         1.623242         1.554279
 H        -2.468765         1.332353        -1.083074
 H        -1.841820         2.539319         0.067603
 H         0.885633         1.149770         0.339979
 H        -1.893421        -1.062443        -0.837647
 H        -0.729745        -1.577859         0.427234
