19
Iteration:   753charge 0 multiplicity 1
 O        -3.734275        -1.599847         1.045011
 C        -2.697179        -0.675663         1.153606
 C        -1.901211        -0.506495         2.470083
 C        -1.383935         0.758798         1.821413
 C        -2.820332         1.020055         1.076068
 C        -2.077486         1.577924        -0.172561
 C        -1.006639         0.622322         0.370177
 O         0.390382         0.582061        -0.042203
 C        -1.639609        -0.826548         0.103366
 H        -4.456263        -1.281599         1.556410
 H        -2.300290        -0.311605         3.498679
 H        -1.270041        -1.392848         2.681547
 H        -0.811783         1.616489         2.291026
 H        -3.661252         1.462526         1.572947
 H        -2.370935         1.424717        -1.249405
 H        -1.752136         2.602414        -0.074971
 H         0.657316        -0.301346         0.221617
 H        -2.004236        -0.966839        -0.959851
 H        -0.960546        -1.695026         0.218226
