19
Iteration:  1953charge 0 multiplicity 1
 O        -3.747076        -1.581542         0.979583
 C        -2.689141        -0.654713         1.171267
 C        -2.029225        -0.446897         2.524993
 C        -1.383057         0.811081         1.834138
 C        -2.784193         1.011071         1.041239
 C        -2.001625         1.494780        -0.190422
 C        -0.943109         0.551543         0.353782
 O         0.341984         0.617988        -0.135836
 C        -1.626567        -0.884178         0.219638
 H        -4.262771        -1.617236         1.865772
 H        -2.557470        -0.164661         3.460688
 H        -1.365535        -1.249291         2.985078
 H        -0.919829         1.565312         2.520486
 H        -3.674884         1.611364         1.432407
 H        -2.335424         1.286687        -1.235264
 H        -1.737863         2.566623        -0.077743
 H         0.909649        -0.044288         0.255338
 H        -1.970320        -0.862685        -0.882904
 H        -0.872136        -1.750660         0.378512
