19
Iteration:  2526charge 0 multiplicity 1
 O        -3.832125        -1.541333         1.157411
 C        -2.737251        -0.651716         1.183613
 C        -2.035081        -0.563704         2.484482
 C        -1.448561         0.752642         1.886032
 C        -2.719776         1.028556         1.134521
 C        -1.957968         1.471316        -0.128919
 C        -0.875145         0.479504         0.275848
 O         0.433090         0.646900        -0.148095
 C        -1.655902        -0.814532         0.080709
 H        -4.010337        -1.769930         0.225511
 H        -2.854704        -0.302717         3.194510
 H        -1.353226        -1.351611         2.918140
 H        -1.001176         1.425869         2.637287
 H        -3.562287         1.587761         1.543274
 H        -2.322554         1.272620        -1.173713
 H        -1.767855         2.536461         0.153455
 H         0.635584         1.560083        -0.317682
 H        -2.048549        -0.960545        -0.972134
 H        -0.922119        -1.601731         0.322563
