19
Iteration:  2342charge 0 multiplicity 1
 O        -3.917194        -1.367574         0.948824
 C        -2.689064        -0.659884         1.217974
 C        -1.886493        -0.535166         2.564053
 C        -1.387070         0.746093         1.836115
 C        -2.725326         1.051100         1.117666
 C        -2.143314         1.350658        -0.196659
 C        -0.954072         0.430257         0.387346
 O         0.354278         0.805172        -0.086006
 C        -1.466482        -0.972288         0.205706
 H        -4.192886        -1.272653        -0.016137
 H        -2.523227        -0.193443         3.387476
 H        -1.273233        -1.399730         2.838668
 H        -0.911507         1.648841         2.340214
 H        -3.626692         1.619721         1.530273
 H        -2.670093         0.904813        -1.032231
 H        -1.786423         2.348695        -0.387129
 H         0.912498         0.063469        -0.351279
 H        -1.701726        -1.366969        -0.797551
 H        -0.952033        -1.755826         0.771477
