19
Iteration:   799charge 0 multiplicity 1
 O        -4.039410        -1.131511         1.014314
 C        -2.669326        -0.663255         1.213607
 C        -1.948214        -0.644473         2.487910
 C        -1.311607         0.720523         1.894419
 C        -2.693181         0.867522         1.092968
 C        -2.030722         1.277793        -0.195877
 C        -0.879635         0.404534         0.343848
 O         0.245246         1.023810        -0.166872
 C        -1.412225        -1.091851         0.162853
 H        -4.208133        -2.002806         1.373169
 H        -2.601608        -0.304502         3.302915
 H        -1.498130        -1.499770         3.000230
 H        -0.886709         1.345784         2.582376
 H        -3.708673         1.317133         1.404052
 H        -2.622484         0.973328        -1.085042
 H        -1.866375         2.419082        -0.291848
 H         1.081852         0.790558         0.295952
 H        -1.669471        -1.318343        -0.902494
 H        -0.732086        -1.906763         0.427081
