19
Iteration:  1592
 O        -3.735550        -1.706206         1.160011
 C        -2.746892        -0.595633         1.114276
 C        -1.852821        -0.422998         2.385434
 C        -1.449780         0.897084         1.751806
 C        -2.816114         1.100049         1.003287
 C        -2.056762         1.538225        -0.206570
 C        -0.999098         0.546228         0.361672
 O         0.439384         0.478057         0.147417
 C        -1.713592        -0.743405         0.092377
 H        -3.328041        -2.394770         1.672836
 H        -2.476254        -0.397788         3.283895
 H        -1.045295        -1.086031         2.676320
 H        -1.058326         1.731722         2.211894
 H        -3.614676         1.551282         1.475172
 H        -2.527647         1.340992        -1.226228
 H        -1.654234         2.517625        -0.401814
 H         0.551063        -0.371688        -0.323293
 H        -2.144187        -0.899424        -0.888112
 H        -1.095234        -1.656452         0.251802
