19
Iteration:   274charge 0 multiplicity 1
 O        -3.921539        -1.344855         1.014213
 C        -2.702601        -0.660305         1.142021
 C        -1.891979        -0.621835         2.550221
 C        -1.343588         0.684745         1.977835
 C        -2.712840         0.913309         1.173904
 C        -2.135530         1.438309        -0.085005
 C        -0.941403         0.558928         0.350513
 O         0.340763         0.738652        -0.244176
 C        -1.503979        -0.945881         0.142987
 H        -4.083163        -1.424365         0.031384
 H        -2.563080        -0.437720         3.400626
 H        -1.227181        -1.461720         2.765778
 H        -0.841513         1.437744         2.571149
 H        -3.615905         1.473352         1.619099
 H        -2.478144         1.118406        -1.090150
 H        -1.831091         2.508488        -0.158465
 H         0.567643         1.626994        -0.528034
 H        -1.698148        -1.300518        -0.862487
 H        -0.908376        -1.730126         0.574421
