19
Iteration:  1039
 O        -3.744361        -1.511553         1.307610
 C        -2.698425        -0.601718         1.118314
 C        -1.778038        -0.601923         2.415334
 C        -1.462833         0.789620         1.780056
 C        -2.861774         0.926085         1.114589
 C        -2.108781         1.644990        -0.135073
 C        -0.955702         0.545901         0.267198
 O         0.389434         0.444665         0.068461
 C        -1.631691        -0.756331        -0.146768
 H        -4.149891        -1.813239         0.464711
 H        -2.400864        -0.592814         3.308216
 H        -0.984997        -1.358404         2.285614
 H        -0.950775         1.515461         2.281541
 H        -3.693660         1.561879         1.517166
 H        -2.545351         1.640896        -1.095575
 H        -1.867540         2.636948         0.279708
 H         0.828558         0.939086         0.811236
 H        -2.266641        -0.629365        -1.046926
 H        -1.071174        -1.680909        -0.106646
