19
Iteration:  4763charge 0 multiplicity 1
 O        -3.920342        -1.406948         1.142307
 C        -2.684655        -0.645320         1.048427
 C        -1.950992        -0.527060         2.459771
 C        -1.396726         0.730597         1.917793
 C        -2.700084         1.025595         1.060752
 C        -1.978782         1.459979        -0.222388
 C        -0.941132         0.384197         0.349643
 O         0.380935         0.778119         0.084272
 C        -1.627769        -0.951402         0.094161
 H        -4.170959        -1.508932         0.192291
 H        -2.599100        -0.274370         3.305037
 H        -1.344304        -1.363155         2.735724
 H        -0.824691         1.460251         2.503202
 H        -3.619119         1.292228         1.536653
 H        -2.520453         1.269202        -1.187284
 H        -1.463028         2.472802        -0.166246
 H         0.521139         0.411471        -0.834648
 H        -1.832312        -1.145428        -0.983064
 H        -0.908191        -1.746987         0.460910
