19
Iteration:  2278charge 0 multiplicity 1
 O        -3.852420        -1.486287         1.232931
 C        -2.720072        -0.665668         1.075005
 C        -1.861007        -0.505251         2.410194
 C        -1.493262         0.848259         1.879685
 C        -2.808545         0.920564         0.979362
 C        -2.033385         1.450545        -0.227586
 C        -0.913857         0.575334         0.373812
 O         0.378364         0.498761        -0.011676
 C        -1.544470        -0.814169         0.145010
 H        -4.278564        -1.490997         0.359410
 H        -2.491214        -0.452241         3.298482
 H        -1.059085        -1.185160         2.640749
 H        -1.164206         1.784362         2.414079
 H        -3.742859         1.489080         1.181113
 H        -2.373373         1.255942        -1.260249
 H        -1.725072         2.476221        -0.017659
 H         0.735186         1.364924         0.226437
 H        -1.770584        -1.136275        -0.852574
 H        -0.803045        -1.513439         0.523308
