19
Iteration:  1462charge 0 multiplicity 1
 O        -3.878993        -1.369893         0.919858
 C        -2.689116        -0.677191         1.256955
 C        -1.936340        -0.460278         2.539177
 C        -1.335259         0.785998         1.864062
 C        -2.795769         0.919339         1.077123
 C        -2.065155         1.268010        -0.206545
 C        -0.938591         0.446900         0.303117
 O         0.316853         0.888110        -0.193029
 C        -1.480569        -1.029969         0.300322
 H        -4.609122        -0.871180         1.285832
 H        -2.530470        -0.276143         3.461837
 H        -1.262834        -1.345025         2.723761
 H        -0.899024         1.564933         2.390553
 H        -3.549371         1.517017         1.534677
 H        -2.549269         0.944988        -1.134977
 H        -1.870283         2.316581        -0.190463
 H         1.132692         0.533411         0.234254
 H        -1.887948        -1.407049        -0.629840
 H        -0.843344        -1.778037         0.742774
