19
Iteration:  2351charge 0 multiplicity 1
 O        -3.858959        -1.348504         0.998445
 C        -2.686473        -0.604665         1.123986
 C        -1.898306        -0.509232         2.538221
 C        -1.453037         0.782916         1.896369
 C        -2.797384         1.006175         1.125509
 C        -2.133378         1.309443        -0.163443
 C        -0.960422         0.465992         0.285440
 O         0.382465         0.709559        -0.093634
 C        -1.488709        -0.924340         0.215115
 H        -4.072633        -1.343837         0.010812
 H        -2.458642        -0.469374         3.496735
 H        -1.021356        -1.229978         2.668946
 H        -0.852710         1.578275         2.518526
 H        -3.721500         1.470806         1.645411
 H        -2.688105         1.050389        -1.096895
 H        -1.779802         2.365122        -0.173526
 H         0.811255        -0.149247         0.059235
 H        -1.547497        -1.189071        -0.890914
 H        -0.789407        -1.647698         0.701607
