19
Iteration:  3382
 O        -4.003553        -1.380847         1.271891
 C        -2.698513        -0.672107         1.045447
 C        -1.792349        -0.536720         2.325832
 C        -1.460645         0.811284         1.863667
 C        -2.808370         0.882626         1.038392
 C        -2.000261         1.416392        -0.185704
 C        -0.907149         0.548151         0.373442
 O         0.457863         0.664658         0.061218
 C        -1.547046        -0.857255         0.007096
 H        -4.551398        -1.600974         0.502440
 H        -2.386166        -0.564984         3.214239
 H        -1.136934        -1.408197         2.429093
 H        -1.154829         1.617746         2.481244
 H        -3.736542         1.322194         1.311434
 H        -2.309801         1.080116        -1.216261
 H        -2.011528         2.498383        -0.118805
 H         0.764420         0.489175         1.002646
 H        -1.893696        -0.800024        -1.001990
 H        -1.029003        -1.759371         0.127250
