19
Iteration:   837
 O        -3.952016        -1.393029         0.988544
 C        -2.685570        -0.646855         1.222777
 C        -1.883469        -0.546574         2.472339
 C        -1.354083         0.803534         1.850436
 C        -2.772860         0.987366         1.143061
 C        -2.164630         1.367812        -0.128198
 C        -0.857358         0.483367         0.331970
 O         0.378755         0.786402        -0.140788
 C        -1.536470        -0.964304         0.204626
 H        -3.721254        -1.710868         0.050893
 H        -2.536447        -0.219235         3.292648
 H        -1.145115        -1.308869         2.714875
 H        -0.870122         1.658266         2.507720
 H        -3.648165         1.405626         1.551947
 H        -2.684964         1.077222        -1.060925
 H        -1.946306         2.395796        -0.142454
 H         1.057457         0.141325         0.182770
 H        -2.018223        -1.156582        -0.744308
 H        -1.016744        -1.860491         0.589015
