19
Iteration:  1861
 O        -3.935261        -1.459953         0.992792
 C        -2.737422        -0.664406         1.134108
 C        -1.976775        -0.499150         2.502852
 C        -1.346465         0.741307         1.861016
 C        -2.727873         0.938281         1.181739
 C        -2.021112         1.478194        -0.077017
 C        -0.925270         0.527146         0.323408
 O         0.419295         0.656948        -0.166125
 C        -1.563499        -0.887668         0.145177
 H        -3.663502        -2.385953         1.129098
 H        -2.731832        -0.237301         3.268279
 H        -1.431346        -1.316212         2.965056
 H        -1.037835         1.570046         2.455271
 H        -3.569176         1.373753         1.668352
 H        -2.447359         1.390963        -1.086644
 H        -1.764980         2.536755         0.091954
 H         0.450056         1.578179        -0.525290
 H        -1.811795        -1.068227        -0.883456
 H        -0.907598        -1.682410         0.500896
