19
Iteration:   977
 O        -3.830638        -1.284841         0.922365
 C        -2.663480        -0.652839         1.236220
 C        -1.991953        -0.641882         2.587542
 C        -1.319915         0.703147         1.951117
 C        -2.719343         0.927990         1.206684
 C        -2.130141         1.379484        -0.187403
 C        -0.909086         0.486820         0.314490
 O         0.287352         0.745402        -0.323825
 C        -1.508154        -0.969844         0.326076
 H        -3.983604        -1.131093        -0.033442
 H        -2.768238        -0.274870         3.280182
 H        -1.438164        -1.518797         3.001249
 H        -0.743508         1.477231         2.572205
 H        -3.449792         1.494750         1.737619
 H        -2.642195         1.101518        -1.164936
 H        -2.053033         2.506302        -0.144801
 H         0.535948         1.706048        -0.445868
 H        -1.827162        -1.294905        -0.687334
 H        -0.783334        -1.713966         0.758954
