19
Iteration:  1632
 O        -3.955989        -1.143827         1.129235
 C        -2.635092        -0.732892         1.154249
 C        -1.830528        -0.510982         2.501401
 C        -1.459923         0.740473         1.753135
 C        -2.769182         0.790200         1.018278
 C        -2.111410         1.318290        -0.225047
 C        -0.907217         0.459675         0.354372
 O         0.405460         0.831327         0.057015
 C        -1.541592        -0.986354         0.150235
 H        -3.976646        -2.154811         1.143578
 H        -2.586026        -0.205592         3.265091
 H        -1.138752        -1.311851         2.829683
 H        -0.986621         1.642201         2.178649
 H        -3.723127         1.149513         1.425236
 H        -2.495147         1.020655        -1.238849
 H        -1.993044         2.424167        -0.122420
 H         0.560758         1.039454        -0.885997
 H        -1.727854        -1.242832        -0.933828
 H        -0.818268        -1.770329         0.559893
