19
Iteration:  3965
 O        -3.848199        -1.524961         0.800677
 C        -2.748328        -0.633691         1.183009
 C        -2.006976        -0.566580         2.530217
 C        -1.371259         0.717264         1.954582
 C        -2.753809         1.029249         1.212295
 C        -2.050776         1.483850        -0.125301
 C        -0.931243         0.475323         0.324024
 O         0.492095         0.733335        -0.173099
 C        -1.616787        -0.879014         0.229372
 H        -4.760159        -1.224082         1.080201
 H        -2.554643         0.008629         3.367007
 H        -1.359710        -1.304101         3.037967
 H        -0.769750         1.488012         2.554177
 H        -3.574231         1.651363         1.653266
 H        -2.599644         1.363642        -1.069079
 H        -1.798758         2.593102         0.045493
 H         0.960896        -0.119760        -0.384689
 H        -1.979280        -1.049628        -0.799888
 H        -0.863620        -1.741183         0.436173
