19
Iteration:  4886charge 0 multiplicity 1
 O        -3.945866        -1.259505         1.030487
 C        -2.699244        -0.643336         1.131780
 C        -1.977336        -0.606816         2.513510
 C        -1.435270         0.750280         1.891631
 C        -2.713115         0.950978         1.009273
 C        -2.008236         1.474711        -0.140742
 C        -0.951678         0.504312         0.383083
 O         0.320231         0.732126        -0.072837
 C        -1.473090        -0.956419         0.176212
 H        -3.769330        -2.115682         0.565621
 H        -2.648696        -0.601336         3.330394
 H        -1.345885        -1.448108         2.824459
 H        -0.840619         1.505031         2.508941
 H        -3.641853         1.298442         1.443317
 H        -2.360267         1.254754        -1.214545
 H        -1.700165         2.526919         0.052586
 H         0.737224        -0.095670        -0.478900
 H        -1.482347        -1.434552        -0.856122
 H        -0.604563        -1.598808         0.598090
