19
Iteration:  3958
 O        -3.884553        -1.514028         0.770026
 C        -2.780173        -0.622987         1.202880
 C        -2.059877        -0.549053         2.596299
 C        -1.318453         0.713242         1.890505
 C        -2.717595         0.973321         1.204845
 C        -2.065887         1.435215        -0.094359
 C        -0.886792         0.520535         0.319696
 O         0.490248         0.780755        -0.189286
 C        -1.588563        -0.893228         0.243713
 H        -4.679397        -1.093649         1.214511
 H        -2.635140         0.005156         3.340858
 H        -1.401117        -1.357947         3.020307
 H        -0.722975         1.368785         2.463231
 H        -3.498282         1.460040         1.792791
 H        -2.551051         1.213345        -1.113784
 H        -1.907355         2.509527        -0.061202
 H         0.960499        -0.110884        -0.268845
 H        -1.934341        -0.865723        -0.826989
 H        -1.060246        -1.800778         0.443305
