19
Iteration:   394charge 0 multiplicity 1
 O        -3.808176        -1.536889         1.371538
 C        -2.705191        -0.645687         1.065474
 C        -1.771902        -0.651832         2.333637
 C        -1.358586         0.686729         1.735008
 C        -2.786539         0.949544         1.018393
 C        -2.096150         1.684302        -0.172034
 C        -0.993149         0.535874         0.279679
 O         0.473101         0.637606         0.198627
 C        -1.782302        -0.837251        -0.079439
 H        -4.524659        -1.479599         0.718982
 H        -2.375806        -0.708804         3.284125
 H        -0.990390        -1.429858         2.320342
 H        -0.764341         1.389957         2.386413
 H        -3.739784         1.333251         1.548557
 H        -2.677491         1.537293        -1.136762
 H        -1.761870         2.708404        -0.134785
 H         0.775676         1.472034         0.657556
 H        -2.118216        -0.764179        -1.144888
 H        -1.281374        -1.818957        -0.105797
