19
Iteration:  1037charge 0 multiplicity 1
 O        -3.745684        -1.513563         1.297480
 C        -2.698687        -0.608894         1.137360
 C        -1.798892        -0.600181         2.423546
 C        -1.473674         0.764209         1.778258
 C        -2.869051         0.919362         1.106213
 C        -2.087272         1.657451        -0.121444
 C        -0.946242         0.545222         0.256184
 O         0.391401         0.451462         0.038565
 C        -1.628565        -0.741064        -0.119499
 H        -4.115871        -1.819271         0.499103
 H        -2.422254        -0.569568         3.327711
 H        -1.027248        -1.371530         2.335687
 H        -0.925803         1.568478         2.314705
 H        -3.732156         1.552551         1.532960
 H        -2.569799         1.628848        -1.124801
 H        -1.858671         2.661355         0.240992
 H         0.868081         0.906090         0.776655
 H        -2.256857        -0.665525        -1.015839
 H        -1.010757        -1.622524        -0.112476
