19
Iteration:  2681
 O        -3.907610        -1.374922         0.807048
 C        -2.701069        -0.656930         1.194109
 C        -1.857257        -0.504500         2.543865
 C        -1.302868         0.713784         1.880586
 C        -2.747617         0.977368         1.227119
 C        -2.118245         1.429169        -0.073882
 C        -0.966207         0.445774         0.297145
 O         0.364489         0.619617        -0.074782
 C        -1.584581        -0.835336         0.175554
 H        -3.579337        -2.291134         0.718821
 H        -2.520570        -0.159082         3.386537
 H        -1.170792        -1.323395         2.860942
 H        -0.672574         1.452139         2.302273
 H        -3.524676         1.448465         1.730411
 H        -2.682166         1.206764        -1.046045
 H        -2.013023         2.538730        -0.206339
 H         0.502405         1.573617        -0.301386
 H        -2.128833        -0.934624        -0.784262
 H        -0.939889        -1.741939         0.356983
