19
Iteration:  4550
 O        -3.952460        -1.443331         1.065798
 C        -2.784723        -0.683009         1.100237
 C        -1.953058        -0.499930         2.457086
 C        -1.409450         0.759968         1.826187
 C        -2.728846         1.061608         1.116745
 C        -2.062438         1.483304        -0.200528
 C        -0.887989         0.407047         0.422438
 O         0.473067         0.676756         0.030138
 C        -1.532044        -0.916759         0.170723
 H        -4.328915        -1.536838         0.138942
 H        -2.546340        -0.251362         3.338182
 H        -1.249470        -1.347272         2.695396
 H        -0.743574         1.491199         2.382592
 H        -3.554489         1.525731         1.621939
 H        -2.454734         1.144904        -1.206180
 H        -1.592094         2.490304        -0.121417
 H         0.599388         0.758305        -0.962461
 H        -1.957330        -1.036048        -0.865867
 H        -0.951799        -1.801684         0.413967
