19
Iteration:  1515charge 0 multiplicity 1
 O        -3.877245        -1.344003         0.995615
 C        -2.713138        -0.635292         1.202799
 C        -1.856880        -0.553817         2.538343
 C        -1.381482         0.785225         1.818670
 C        -2.757785         0.951387         1.085593
 C        -2.146135         1.246106        -0.270209
 C        -0.927775         0.427658         0.304895
 O         0.347145         0.893780        -0.097759
 C        -1.488744        -0.991595         0.294282
 H        -4.605547        -0.728650         0.971791
 H        -2.467946        -0.246541         3.398376
 H        -1.262113        -1.462975         2.659601
 H        -0.932668         1.576764         2.310059
 H        -3.597024         1.370587         1.548196
 H        -2.698333         0.727140        -1.133593
 H        -1.919223         2.266007        -0.564490
 H         1.147930         0.468116         0.313124
 H        -1.735768        -1.247841        -0.731261
 H        -0.935794        -1.748343         0.836474
