19
Iteration:   322charge 0 multiplicity 1
 O        -3.824773        -1.483505         0.852076
 C        -2.702046        -0.621245         1.149005
 C        -1.959015        -0.570500         2.638271
 C        -1.365339         0.733809         2.022625
 C        -2.722291         0.961916         1.263794
 C        -2.098115         1.521306         0.020226
 C        -0.924839         0.513501         0.284719
 O         0.250069         0.563610        -0.414558
 C        -1.455985        -0.823866         0.224226
 H        -3.961456        -1.203588        -0.032247
 H        -2.664548        -0.274059         3.430920
 H        -1.354802        -1.401542         3.014162
 H        -0.758460         1.527816         2.559420
 H        -3.751413         1.244501         1.661396
 H        -2.630976         1.494073        -0.890714
 H        -1.837989         2.634993         0.136935
 H         0.538617         1.476300        -0.175044
 H        -1.669239        -1.230111        -0.753353
 H        -0.736237        -1.621130         0.474745
