19
Iteration:   616charge 0 multiplicity 1
 O        -3.838775        -1.370129         0.904075
 C        -2.684942        -0.619139         1.223850
 C        -1.929768        -0.565576         2.494319
 C        -1.355205         0.778086         1.854364
 C        -2.750859         0.908810         1.247083
 C        -2.143340         1.370017        -0.086917
 C        -0.928754         0.409501         0.276089
 O         0.366779         0.849067        -0.152541
 C        -1.502382        -0.986286         0.217797
 H        -4.576730        -0.709320         0.901609
 H        -2.534558        -0.530114         3.387790
 H        -1.311968        -1.472215         2.641738
 H        -0.875990         1.577782         2.341889
 H        -3.557104         1.353056         1.966239
 H        -2.533287         1.070527        -1.006866
 H        -1.903155         2.474284        -0.107157
 H         0.420710         0.718585        -1.138955
 H        -1.858016        -1.370349        -0.764826
 H        -0.920934        -1.796922         0.704062
