19
Iteration:   133
 O        -3.999912        -1.148816         0.991860
 C        -2.708383        -0.676133         1.240130
 C        -1.908452        -0.633944         2.509152
 C        -1.380669         0.770462         1.859312
 C        -2.679062         0.906302         1.121381
 C        -2.119985         1.192439        -0.203546
 C        -0.885034         0.396921         0.346232
 O         0.329825         0.911662        -0.129430
 C        -1.412784        -1.014943         0.261482
 H        -3.896204        -1.977640         0.459599
 H        -2.460371        -0.339402         3.393680
 H        -1.281106        -1.491011         2.620111
 H        -0.763070         1.548388         2.262093
 H        -3.500174         1.600109         1.560842
 H        -2.591661         0.858888        -1.068583
 H        -1.880247         2.306947        -0.204904
 H         0.073471         1.628644        -0.735934
 H        -1.741758        -1.276990        -0.735920
 H        -0.859255        -1.827218         0.715801
