19
Iteration:   700
 O        -3.694296        -1.708488         1.183953
 C        -2.753410        -0.707753         1.185708
 C        -1.875374        -0.521825         2.435045
 C        -1.483353         0.806694         1.812667
 C        -2.761638         1.016023         1.033621
 C        -1.946868         1.596042        -0.180865
 C        -0.966813         0.571613         0.312651
 O         0.375690         0.529958         0.049816
 C        -1.705787        -0.722275         0.074315
 H        -4.580539        -1.440974         1.039570
 H        -2.600128        -0.121427         3.183751
 H        -1.228125        -1.379153         2.712884
 H        -1.069051         1.705369         2.278928
 H        -3.541921         1.656221         1.505845
 H        -2.297208         1.444864        -1.259914
 H        -1.716749         2.682587         0.022338
 H         0.436582         0.358768        -0.891112
 H        -2.176560        -0.507209        -0.930631
 H        -0.952841        -1.502420         0.204058
