19
Iteration:  3883charge 0 multiplicity 1
 O        -3.856614        -1.543800         1.026904
 C        -2.665393        -0.688218         1.183316
 C        -1.970140        -0.490469         2.455454
 C        -1.320691         0.705269         1.852804
 C        -2.819352         0.984299         1.034288
 C        -2.018947         1.569570        -0.190686
 C        -0.914977         0.521614         0.340768
 O         0.481948         0.618615         0.078745
 C        -1.724345        -0.797280        -0.019914
 H        -4.480369        -1.337179         1.714363
 H        -2.621661        -0.261282         3.310662
 H        -1.294374        -1.321169         2.871138
 H        -0.737881         1.571828         2.260068
 H        -3.721031         1.447046         1.463555
 H        -2.516587         1.293554        -1.162001
 H        -1.692291         2.573737        -0.029157
 H         1.020255         0.108534         0.655585
 H        -2.401340        -0.717159        -0.929308
 H        -1.099182        -1.697517        -0.051585
