19
Iteration:  4667charge 0 multiplicity 1
 O        -3.933932        -1.569389         1.240520
 C        -2.798564        -0.693776         1.185171
 C        -1.988185        -0.521406         2.377696
 C        -1.355021         0.737202         1.756937
 C        -2.731581         1.017757         1.037852
 C        -2.006141         1.628558        -0.264349
 C        -0.873902         0.513512         0.339109
 O         0.496678         0.667328         0.190727
 C        -1.622086        -0.906880         0.019602
 H        -4.432235        -1.626355         0.419035
 H        -2.419854         0.032991         3.192718
 H        -1.561970        -1.559944         2.612891
 H        -1.046810         1.623691         2.390377
 H        -3.459853         1.488152         1.610903
 H        -2.426777         1.348303        -1.196839
 H        -1.506557         2.538007        -0.146286
 H         0.568891         0.357969        -0.713023
 H        -2.069789        -0.822239        -0.977241
 H        -0.891506        -1.731921         0.173456
