19
Iteration:  4902charge 0 multiplicity 1
 O        -3.888856        -1.244778         0.903245
 C        -2.669295        -0.649140         1.154655
 C        -1.915150        -0.555663         2.473759
 C        -1.441097         0.779110         1.874674
 C        -2.800962         0.927800         1.152158
 C        -1.990892         1.399768        -0.162668
 C        -0.943595         0.426521         0.373954
 O         0.356469         0.750872        -0.071527
 C        -1.543979        -0.955971         0.193700
 H        -3.821596        -2.240043         1.009967
 H        -2.583846        -0.373660         3.382188
 H        -1.142491        -1.354740         2.610325
 H        -1.034313         1.638874         2.341641
 H        -3.716031         1.408840         1.606464
 H        -2.490322         1.318384        -1.092032
 H        -1.627683         2.447618        -0.020272
 H         1.028442         0.000458         0.027432
 H        -2.068068        -0.989431        -0.773282
 H        -1.120665        -1.889704         0.542603
