19
Iteration:  3475charge 0 multiplicity 1
 O        -3.966047        -1.340663         1.049437
 C        -2.652940        -0.660984         1.107124
 C        -1.919769        -0.543745         2.538840
 C        -1.507168         0.794736         2.010099
 C        -2.803620         0.956461         1.007111
 C        -1.993982         1.424015        -0.188911
 C        -0.902024         0.520207         0.355818
 O         0.367204         0.725171        -0.163805
 C        -1.466195        -0.991004         0.249289
 H        -4.173840        -1.466229         0.102097
 H        -2.608810        -0.553811         3.455176
 H        -1.248477        -1.377574         2.874823
 H        -0.987451         1.637888         2.512519
 H        -3.667149         1.493088         1.520018
 H        -2.222135         1.212918        -1.224387
 H        -1.786485         2.505198        -0.132416
 H         0.970977         0.010830        -0.295898
 H        -1.687334        -1.192901        -0.869030
 H        -0.817287        -1.889309         0.608272
