19
Iteration:  1174charge 0 multiplicity 1
 O        -3.876811        -1.273153         0.851112
 C        -2.659731        -0.679135         1.149618
 C        -1.785505        -0.593433         2.550056
 C        -1.372187         0.727973         1.948006
 C        -2.742139         0.877273         1.268824
 C        -2.155476         1.514808        -0.025990
 C        -0.972885         0.569521         0.346254
 O         0.292237         0.554626        -0.181633
 C        -1.560730        -0.848598         0.082029
 H        -3.675749        -2.248879         0.658647
 H        -2.521342        -0.457273         3.379697
 H        -1.046588        -1.407972         2.685315
 H        -0.840344         1.480799         2.602887
 H        -3.666484         1.147725         1.729058
 H        -2.565858         1.228894        -0.996876
 H        -1.946299         2.597413         0.092042
 H         0.658300         1.391906        -0.460526
 H        -2.070558        -0.968100        -0.899391
 H        -0.744354        -1.567822         0.338354
