19
Iteration:  1483charge 0 multiplicity 1
 O        -3.991243        -1.131473         0.894051
 C        -2.618268        -0.752296         1.166168
 C        -1.781118        -0.456859         2.683474
 C        -1.397141         0.759095         1.840154
 C        -2.674266         0.785560         1.105991
 C        -2.210693         1.154236        -0.242111
 C        -0.930196         0.378844         0.302186
 O         0.274789         0.980115        -0.105887
 C        -1.432762        -1.053610         0.222926
 H        -4.633349        -0.343311         1.105354
 H        -2.529844        -0.062222         3.428822
 H        -1.276857        -1.251906         3.306354
 H        -0.988764         1.600989         2.191754
 H        -3.566247         1.010843         1.531135
 H        -2.631891         0.494558        -1.066523
 H        -1.919764         2.145721        -0.497815
 H         1.109420         0.758089         0.287376
 H        -1.459187        -1.315927        -0.822405
 H        -0.862797        -1.864960         0.641201
