19
Iteration:   522
 O        -3.953801        -1.374667         1.173411
 C        -2.656340        -0.693956         1.107022
 C        -1.727768        -0.597060         2.304873
 C        -1.370735         0.788979         1.828810
 C        -2.820602         0.871549         1.106919
 C        -2.192193         1.533760        -0.105241
 C        -0.935830         0.531422         0.271606
 O         0.439470         0.695822         0.134087
 C        -1.625534        -0.849359        -0.028323
 H        -4.032317        -2.267177         1.635627
 H        -2.271653        -0.482219         3.262396
 H        -0.959115        -1.364393         2.485999
 H        -0.987410         1.604171         2.452133
 H        -3.625488         1.283081         1.555576
 H        -2.728545         1.444554        -1.115870
 H        -1.912011         2.564122         0.129865
 H         0.962338         0.199782        -0.497835
 H        -2.141920        -0.925470        -1.082746
 H        -0.880699        -1.691306         0.104223
