19
Iteration:   193charge 0 multiplicity 1
 O        -3.614915        -1.716009         1.201766
 C        -2.765455        -0.625107         1.111280
 C        -1.875027        -0.439843         2.414039
 C        -1.516007         0.856026         1.855833
 C        -2.805663         1.026024         1.084961
 C        -2.049905         1.687543        -0.128749
 C        -0.950626         0.562459         0.352503
 O         0.375005         0.383209        -0.075324
 C        -1.703731        -0.765958         0.015443
 H        -4.317091        -1.796274         0.455803
 H        -2.555247        -0.192275         3.280462
 H        -1.115871        -1.242973         2.728432
 H        -0.794105         1.525442         2.404593
 H        -3.626276         1.525438         1.515963
 H        -2.341205         1.444317        -1.241375
 H        -1.766235         2.724998         0.062481
 H         0.916914         0.768641         0.651193
 H        -2.199935        -0.858810        -1.004880
 H        -1.113136        -1.682530         0.333369
