19
Iteration:  2797
 O        -3.842134        -1.383957         0.859581
 C        -2.701957        -0.585914         1.156786
 C        -1.955492        -0.506849         2.487173
 C        -1.313045         0.759814         1.966116
 C        -2.753977         0.971656         1.220508
 C        -2.113682         1.372443        -0.075481
 C        -0.942767         0.474053         0.408033
 O         0.369632         0.607164        -0.218962
 C        -1.565617        -0.864310         0.158139
 H        -3.651717        -2.288801         0.667489
 H        -2.597007        -0.188333         3.310554
 H        -1.385772        -1.402470         2.772018
 H        -0.777005         1.528404         2.610269
 H        -3.719123         1.396357         1.642760
 H        -2.620100         1.137133        -1.004341
 H        -1.907794         2.427784         0.041802
 H         0.529466         1.547065        -0.070496
 H        -1.902835        -0.917359        -0.896089
 H        -0.999976        -1.743585         0.483830
