19
Iteration:  3089charge 0 multiplicity 1
 O        -3.823832        -1.381379         1.149873
 C        -2.640025        -0.676652         1.130192
 C        -1.728602        -0.564729         2.407610
 C        -1.502516         0.838876         1.831355
 C        -2.855963         0.874905         1.014203
 C        -2.149136         1.434905        -0.197522
 C        -0.961492         0.552695         0.392966
 O         0.434943         0.530032         0.078851
 C        -1.649247        -0.830878         0.059246
 H        -4.323437        -0.800104         0.603443
 H        -2.364527        -0.740146         3.267697
 H        -0.894020        -1.295874         2.332777
 H        -1.222484         1.786013         2.324634
 H        -3.690708         1.312597         1.567843
 H        -2.354756         1.197814        -1.277284
 H        -1.988077         2.565226        -0.098707
 H         1.088752         0.982803         0.598053
 H        -2.014596        -0.794336        -1.025040
 H        -0.921674        -1.632452         0.070533
