19
Iteration:   524
 O        -3.953220        -1.402014         1.193362
 C        -2.641142        -0.697996         1.099190
 C        -1.733069        -0.595701         2.282488
 C        -1.373977         0.798432         1.809896
 C        -2.790998         0.879561         1.117120
 C        -2.184940         1.539125        -0.111842
 C        -0.951595         0.528514         0.259895
 O         0.425171         0.684665         0.160952
 C        -1.628290        -0.815765        -0.030682
 H        -4.054210        -2.222028         1.648907
 H        -2.282350        -0.470964         3.275406
 H        -0.967959        -1.385415         2.446181
 H        -0.989199         1.632229         2.487980
 H        -3.686014         1.317296         1.552583
 H        -2.692872         1.467872        -1.139942
 H        -1.870665         2.531832         0.117365
 H         0.931281         0.144557        -0.446303
 H        -2.159149        -0.968643        -1.096132
 H        -0.885763        -1.676179         0.050408
