19
Iteration:   666charge 0 multiplicity 1
 O        -3.886736        -1.305242         1.090861
 C        -2.706416        -0.690134         1.122217
 C        -1.818661        -0.601728         2.446500
 C        -1.422153         0.745605         1.778611
 C        -2.763171         0.881406         1.131381
 C        -2.183596         1.358861        -0.148442
 C        -0.945383         0.427575         0.278602
 O         0.471467         0.872559         0.038860
 C        -1.534626        -0.990725         0.158919
 H        -4.558626        -0.686009         0.903795
 H        -2.422186        -0.280632         3.351138
 H        -1.130573        -1.350345         2.857789
 H        -0.900050         1.588628         2.352341
 H        -3.612359         1.382869         1.559445
 H        -2.859835         1.127454        -1.063603
 H        -1.908687         2.416920        -0.135611
 H         0.552214         0.877477        -0.929345
 H        -1.843185        -1.332569        -0.878411
 H        -0.929717        -1.870512         0.371974
