19
Iteration:   192charge 0 multiplicity 1
 O        -3.616708        -1.709736         1.193719
 C        -2.761484        -0.630243         1.111057
 C        -1.882476        -0.440287         2.417024
 C        -1.512441         0.854611         1.861894
 C        -2.798181         1.017933         1.086828
 C        -2.054353         1.683457        -0.131591
 C        -0.952235         0.571622         0.350470
 O         0.374908         0.385050        -0.086261
 C        -1.698756        -0.768651         0.030366
 H        -4.306995        -1.777775         0.440944
 H        -2.562674        -0.198057         3.288746
 H        -1.155409        -1.252521         2.746231
 H        -0.793985         1.572303         2.391144
 H        -3.663907         1.512732         1.554422
 H        -2.336748         1.461446        -1.216698
 H        -1.746474         2.741844         0.033909
 H         0.932716         0.760148         0.646919
 H        -2.192264        -0.874627        -0.985477
 H        -1.133770        -1.706975         0.340134
