19
Iteration:  2519charge 0 multiplicity 1
 O        -3.835470        -1.564038         1.121554
 C        -2.737440        -0.607848         1.159475
 C        -2.078146        -0.579368         2.543279
 C        -1.349764         0.702517         1.958687
 C        -2.776035         1.074889         1.107355
 C        -1.999371         1.451476        -0.145914
 C        -0.874778         0.509819         0.285201
 O         0.451474         0.667933        -0.200280
 C        -1.620882        -0.841634         0.126076
 H        -4.065322        -1.772021         0.155517
 H        -2.795537        -0.210496         3.305918
 H        -1.582965        -1.443689         2.966387
 H        -0.823506         1.352775         2.616156
 H        -3.561638         1.605606         1.571220
 H        -2.348660         1.319835        -1.150305
 H        -1.746737         2.494144        -0.097060
 H         0.594186         1.616836        -0.349793
 H        -2.025259        -0.897988        -0.878306
 H        -1.010297        -1.734966         0.384417
