19
Iteration:  1328
 O        -3.952810        -1.315129         0.883314
 C        -2.678609        -0.671742         1.190985
 C        -1.933180        -0.579852         2.661633
 C        -1.331783         0.667410         1.981948
 C        -2.725158         0.864451         1.139129
 C        -2.084211         1.308359        -0.141999
 C        -0.897133         0.460318         0.324772
 O         0.329581         0.927835        -0.226491
 C        -1.449371        -0.986557         0.189821
 H        -4.625272        -0.672473         0.985205
 H        -2.713824        -0.089542         3.364805
 H        -1.288967        -1.300597         3.249539
 H        -0.668623         1.564977         2.342804
 H        -3.628584         1.256822         1.706360
 H        -2.494939         1.220654        -1.215804
 H        -1.793911         2.382979         0.015657
 H         0.159739         0.712762        -1.184753
 H        -1.707791        -1.282326        -0.894477
 H        -0.821511        -1.824540         0.633168
