19
Iteration:  4513charge 0 multiplicity 1
 O        -3.873783        -1.426589         1.202217
 C        -2.646810        -0.675829         1.087337
 C        -1.872855        -0.524766         2.451680
 C        -1.493112         0.784951         1.809865
 C        -2.774510         0.948751         0.976777
 C        -2.040899         1.540788        -0.212746
 C        -1.000788         0.499433         0.387153
 O         0.461981         0.527963         0.222734
 C        -1.584910        -0.844081        -0.009540
 H        -4.492518        -1.286329         0.428059
 H        -2.553882        -0.324913         3.338177
 H        -1.017311        -1.272770         2.639133
 H        -0.911955         1.571552         2.237379
 H        -3.651028         1.407630         1.472672
 H        -2.428677         1.488170        -1.261530
 H        -1.641475         2.533405        -0.103093
 H         0.442296         0.450597        -0.806415
 H        -2.086908        -0.767849        -0.939442
 H        -0.851397        -1.660564         0.002115
