19
Iteration:  1061charge 0 multiplicity 1
 O        -3.801383        -1.498688         1.281661
 C        -2.690397        -0.716994         1.078467
 C        -1.616380        -0.590540         2.170244
 C        -1.427520         0.816245         1.753542
 C        -2.795014         1.012419         1.175887
 C        -2.101616         1.575333        -0.165301
 C        -0.977969         0.538841         0.307163
 O         0.401289         0.504712         0.290604
 C        -1.820556        -0.808035        -0.089162
 H        -4.480863        -1.398514         0.577882
 H        -2.218780        -0.617340         3.074352
 H        -0.683238        -1.203956         2.011392
 H        -0.861335         1.498324         2.248976
 H        -3.768586         1.354669         1.661321
 H        -2.685779         1.131345        -0.933186
 H        -1.761979         2.626296        -0.290456
 H         0.714142         1.377794         0.504878
 H        -2.381365        -0.707721        -1.067866
 H        -1.065407        -1.576478        -0.024122
