19
Iteration:  3762charge 0 multiplicity 1
 O        -3.962978        -1.396174         0.932226
 C        -2.781600        -0.593171         1.172394
 C        -1.904339        -0.627160         2.517403
 C        -1.318890         0.751304         1.828700
 C        -2.807199         0.987926         1.085194
 C        -2.020896         1.346952        -0.109668
 C        -0.917951         0.438342         0.348633
 O         0.435149         0.833879        -0.133903
 C        -1.536154        -0.949524         0.196982
 H        -4.790899        -0.850514         0.968832
 H        -2.457878        -0.462991         3.467986
 H        -1.074594        -1.387824         2.784161
 H        -0.873061         1.396076         2.650420
 H        -3.604917         1.649159         1.495619
 H        -2.492471         1.072093        -1.150389
 H        -1.686086         2.390305        -0.145956
 H         1.045836         0.441370         0.595649
 H        -2.010980        -1.166067        -0.844035
 H        -0.917689        -1.817872         0.588207
