19
Iteration:   122charge 0 multiplicity 1
 O        -3.983796        -1.117234         0.986822
 C        -2.713483        -0.605087         1.204701
 C        -1.862350        -0.600848         2.565032
 C        -1.342830         0.630293         1.832550
 C        -2.754114         0.904684         1.152384
 C        -2.098012         1.170642        -0.247798
 C        -0.952709         0.431808         0.309454
 O         0.330646         0.952892        -0.033345
 C        -1.425516        -0.998231         0.186980
 H        -3.996241        -2.150988         0.954222
 H        -2.361598        -0.362200         3.500615
 H        -1.152022        -1.383991         2.775223
 H        -0.730457         1.375310         2.297597
 H        -3.710475         1.402177         1.570839
 H        -2.611591         0.750445        -1.056436
 H        -1.862289         2.259801        -0.457925
 H         0.362312         1.115819        -1.015740
 H        -1.621512        -1.263614        -0.847730
 H        -0.834201        -1.774368         0.660000
