19
Iteration:  4994charge 0 multiplicity 1
 O        -3.886933        -1.546229         0.980511
 C        -2.728474        -0.675448         1.151270
 C        -1.894114        -0.588804         2.511592
 C        -1.385477         0.696292         1.865869
 C        -2.832907         0.954597         1.081043
 C        -1.999810         1.549255        -0.156962
 C        -0.857373         0.604529         0.372835
 O         0.536052         0.568530         0.042549
 C        -1.724414        -0.759085         0.062673
 H        -4.564531        -0.986840         1.341079
 H        -2.510283        -0.351554         3.392946
 H        -1.202127        -1.476646         2.658909
 H        -0.918222         1.557232         2.472760
 H        -3.647142         1.446382         1.594492
 H        -2.514606         1.368990        -1.194754
 H        -1.994855         2.666040        -0.117118
 H         0.622805         0.959076        -0.836421
 H        -2.250717        -0.757155        -0.888810
 H        -1.076696        -1.652150         0.223237
