19
Iteration:  2048
 O        -3.850512        -1.441677         1.077489
 C        -2.748864        -0.585678         1.194222
 C        -1.833909        -0.485720         2.493646
 C        -1.422266         0.849967         1.750926
 C        -2.780509         0.986417         1.055621
 C        -2.063764         1.350316        -0.295643
 C        -0.941230         0.451393         0.337268
 O         0.467584         0.740339         0.058630
 C        -1.717994        -0.914121         0.109712
 H        -3.665224        -2.386102         0.970835
 H        -2.334464        -0.478779         3.473346
 H        -0.962301        -1.141444         2.628029
 H        -0.895254         1.681732         2.272114
 H        -3.670013         1.462697         1.588275
 H        -2.519663         1.042689        -1.295581
 H        -1.738112         2.383511        -0.441922
 H         0.781304         0.394504         0.905976
 H        -2.277299        -1.183759        -0.750637
 H        -1.242291        -1.854096         0.391710
