19
Iteration:  4248charge 0 multiplicity 1
 O        -3.916540        -1.312352         0.879479
 C        -2.660240        -0.670241         1.162529
 C        -2.047370        -0.590658         2.471001
 C        -1.435813         0.788641         1.972218
 C        -2.760771         0.965603         1.159506
 C        -1.934077         1.502202        -0.099488
 C        -0.900084         0.480439         0.373446
 O         0.336649         0.632880        -0.119082
 C        -1.481802        -0.904091         0.140123
 H        -3.898398        -2.311036         1.089395
 H        -2.784243        -0.284550         3.256615
 H        -1.643848        -1.513909         2.856380
 H        -0.821509         1.416650         2.657586
 H        -3.725636         1.393182         1.620536
 H        -2.442757         1.350821        -1.010828
 H        -1.440220         2.474944         0.219613
 H         0.415111         0.830983        -1.118171
 H        -1.823934        -1.267057        -0.758821
 H        -0.667730        -1.554783         0.535585
