19
Iteration:   636
 O        -3.998972        -1.245753         0.915101
 C        -2.738382        -0.715465         1.160479
 C        -1.762038        -0.630280         2.571396
 C        -1.315698         0.695019         1.925183
 C        -2.679573         0.854928         1.158091
 C        -2.131751         1.244339        -0.222294
 C        -0.957303         0.458357         0.405565
 O         0.309004         0.953670        -0.121249
 C        -1.451556        -0.957651         0.229739
 H        -4.609210        -0.471112         0.653806
 H        -2.335805        -0.271936         3.479959
 H        -0.988963        -1.369254         2.941534
 H        -0.639676         1.331954         2.476977
 H        -3.633909         1.519213         1.429935
 H        -2.736669         0.746524        -1.005508
 H        -2.039393         2.358335        -0.441846
 H         0.292679         0.724125        -1.062058
 H        -1.875746        -1.009288        -0.848079
 H        -0.710033        -1.752954         0.610322
