19
Iteration:   249charge 0 multiplicity 1
 O        -3.905629        -1.399749         1.270838
 C        -2.712145        -0.653191         1.107458
 C        -1.764499        -0.646287         2.377355
 C        -1.417359         0.797758         1.782013
 C        -2.825621         0.881856         1.084085
 C        -2.131122         1.470454        -0.094732
 C        -0.941406         0.520519         0.333033
 O         0.442622         0.644480         0.071783
 C        -1.602634        -0.800907        -0.032573
 H        -4.213956        -1.823763         0.476848
 H        -2.320512        -0.542126         3.320479
 H        -1.048275        -1.529096         2.355968
 H        -0.867607         1.586737         2.272295
 H        -3.639801         1.355079         1.479533
 H        -2.446969         1.359220        -1.215812
 H        -1.751846         2.455932         0.085900
 H         0.741468         1.487062        -0.258884
 H        -2.036041        -0.840766        -1.086371
 H        -1.024097        -1.749713         0.096165
