19
Iteration:   434charge 0 multiplicity 1
 O        -3.836490        -1.492280         0.998788
 C        -2.667476        -0.689189         1.130092
 C        -1.870401        -0.572891         2.544993
 C        -1.392796         0.767811         1.998097
 C        -2.766514         0.942722         1.137271
 C        -2.103166         1.556133        -0.101160
 C        -0.923203         0.565549         0.387636
 O         0.297070         0.586700        -0.272211
 C        -1.570182        -0.822287         0.156553
 H        -4.348360        -1.276625         0.181872
 H        -2.457278        -0.417386         3.458132
 H        -1.091613        -1.349286         2.738665
 H        -0.837859         1.535821         2.468726
 H        -3.655027         1.180630         1.580017
 H        -2.573154         1.490547        -1.115805
 H        -1.847666         2.616432         0.061747
 H         0.983875         1.017924         0.227425
 H        -1.903120        -1.107065        -0.890467
 H        -0.868588        -1.663340         0.290890
