19
Iteration:  3516
 O        -3.864120        -1.448532         1.093828
 C        -2.723663        -0.642393         1.211244
 C        -1.930297        -0.514632         2.507707
 C        -1.359210         0.700126         1.797689
 C        -2.718656         0.989294         1.074192
 C        -2.075396         1.456640        -0.349745
 C        -0.928460         0.483329         0.330664
 O         0.480001         0.773723         0.043712
 C        -1.645837        -0.973963         0.079464
 H        -4.618783        -1.127112         0.515322
 H        -2.588530        -0.318924         3.427020
 H        -1.275739        -1.278104         3.003903
 H        -0.898219         1.510393         2.490001
 H        -3.654270         1.533858         1.358953
 H        -2.623421         1.013104        -1.173631
 H        -1.839114         2.566009        -0.328579
 H         0.693231         0.386425         0.967200
 H        -2.116210        -1.073770        -0.892635
 H        -1.096875        -1.874910         0.286917
