19
Iteration:  3278
 O        -3.894949        -1.450688         1.053598
 C        -2.696796        -0.622854         1.079450
 C        -1.973883        -0.525004         2.493522
 C        -1.419393         0.792871         1.891045
 C        -2.831769         0.953225         1.063769
 C        -2.069448         1.563973        -0.054166
 C        -0.927514         0.533100         0.421803
 O         0.410048         0.584466        -0.141994
 C        -1.426085        -0.897105         0.138096
 H        -4.076006        -1.905944         0.173433
 H        -2.639595        -0.189659         3.318400
 H        -1.167238        -1.191864         2.781589
 H        -1.120892         1.705473         2.487952
 H        -3.690547         1.388722         1.583123
 H        -2.590821         1.498494        -1.035605
 H        -1.637924         2.574932         0.211620
 H         0.391975        -0.309852        -0.595808
 H        -1.610480        -1.181997        -0.915222
 H        -0.713168        -1.585452         0.675784
