19
Iteration:   722
 O        -3.545546        -1.770358         1.142990
 C        -2.725587        -0.618608         1.106514
 C        -1.947213        -0.431830         2.506238
 C        -1.480541         0.950744         1.906572
 C        -2.880717         1.075075         1.072498
 C        -2.015961         1.625452        -0.081709
 C        -0.969672         0.550741         0.301625
 O         0.481647         0.402788         0.014764
 C        -1.765969        -0.795460        -0.080233
 H        -4.530390        -1.516359         1.037672
 H        -2.514826        -0.220563         3.410703
 H        -1.131972        -1.182666         2.490814
 H        -1.030138         1.804738         2.411021
 H        -3.852985         1.503966         1.455592
 H        -2.368441         1.735840        -1.165379
 H        -1.521804         2.591730         0.275138
 H         0.318919        -0.355280        -0.614406
 H        -2.444976        -0.527254        -0.942115
 H        -1.208513        -1.721272         0.017822
