19
Iteration:  3636
 O        -4.090240        -1.231127         0.989741
 C        -2.707779        -0.711506         1.129290
 C        -1.923439        -0.515815         2.524404
 C        -1.364621         0.682002         1.854826
 C        -2.773445         0.869525         1.055270
 C        -2.019318         1.425633        -0.148287
 C        -0.898071         0.466045         0.365127
 O         0.443020         0.755757        -0.036227
 C        -1.429926        -0.937701         0.221297
 H        -4.007353        -2.173634         1.033590
 H        -2.725908        -0.435771         3.328423
 H        -1.208008        -1.328380         2.821271
 H        -0.910107         1.652931         2.289300
 H        -3.716435         1.334162         1.426293
 H        -2.427110         1.178963        -1.204508
 H        -1.880985         2.592195        -0.094430
 H         0.321993         0.802420        -0.983033
 H        -1.726978        -1.163110        -0.807668
 H        -0.717569        -1.664423         0.587232
