19
Iteration:  3523charge 0 multiplicity 1
 O        -3.863966        -1.505539         1.141618
 C        -2.701018        -0.724729         1.188032
 C        -1.968916        -0.493726         2.492541
 C        -1.415984         0.734155         1.828133
 C        -2.690130         1.037885         1.070733
 C        -2.021566         1.467753        -0.322196
 C        -0.920646         0.492848         0.310429
 O         0.455998         0.723473         0.055443
 C        -1.677212        -0.923767         0.071432
 H        -4.552332        -1.004617         0.677540
 H        -2.503990        -0.230386         3.389174
 H        -1.264469        -1.326946         2.650218
 H        -1.030974         1.554729         2.428332
 H        -3.687770         1.372846         1.267378
 H        -2.612271         1.243803        -1.266721
 H        -1.744985         2.530072        -0.421385
 H         1.070981         0.613790         0.829186
 H        -2.018675        -0.954953        -0.964062
 H        -1.128630        -1.855306         0.264332
