19
Iteration:  1920
 O        -3.852478        -1.485375         1.256722
 C        -2.674655        -0.689040         1.116798
 C        -1.706784        -0.487093         2.339724
 C        -1.440519         0.846855         1.728772
 C        -2.846693         0.972218         1.047827
 C        -2.142647         1.471319        -0.209213
 C        -0.966427         0.533725         0.256300
 O         0.477397         0.571708         0.226094
 C        -1.678398        -0.921012        -0.023974
 H        -4.479542        -0.912992         0.820633
 H        -2.226248        -0.518181         3.313528
 H        -0.763404        -1.086156         2.210441
 H        -1.026596         1.747300         2.238950
 H        -3.852605         1.394346         1.391517
 H        -2.548511         1.268366        -1.228167
 H        -2.051198         2.545921         0.023518
 H         0.678339         0.508466         1.184753
 H        -1.970956        -0.651235        -1.087598
 H        -1.031696        -1.891055         0.012829
