19
Iteration:   396charge 0 multiplicity 1
 O        -3.798592        -1.538483         1.365109
 C        -2.714642        -0.641287         1.060097
 C        -1.780202        -0.647206         2.338825
 C        -1.365055         0.706217         1.752820
 C        -2.794124         0.940158         1.015315
 C        -2.099034         1.651954        -0.170017
 C        -0.976860         0.546077         0.278411
 O         0.474145         0.627187         0.178112
 C        -1.773459        -0.829263        -0.080522
 H        -4.563570        -1.418578         0.689050
 H        -2.347174        -0.738886         3.282196
 H        -1.017992        -1.408969         2.290001
 H        -0.721140         1.382276         2.413147
 H        -3.814274         1.343101         1.573258
 H        -2.704703         1.577240        -1.096046
 H        -1.715853         2.747192        -0.062184
 H         0.754912         1.424214         0.684010
 H        -2.167872        -0.736817        -1.100901
 H        -1.215396        -1.799780        -0.020440
