19
Iteration:  4334charge 0 multiplicity 1
 O        -3.879264        -1.542008         1.185562
 C        -2.767220        -0.601288         1.070050
 C        -1.864505        -0.503683         2.313024
 C        -1.515488         0.833110         1.773092
 C        -2.805511         0.948676         1.057528
 C        -1.998025         1.496703        -0.157694
 C        -0.897817         0.555483         0.321435
 O         0.547244         0.500774         0.122393
 C        -1.656800        -0.805987         0.047322
 H        -4.665230        -1.352823         0.692423
 H        -2.515283        -0.449391         3.231305
 H        -1.125663        -1.267885         2.522885
 H        -0.876103         1.617293         2.304022
 H        -3.675735         1.499950         1.468765
 H        -2.497262         1.539538        -1.094953
 H        -1.845078         2.574774         0.181491
 H         0.918048         0.615108         1.002096
 H        -2.076762        -1.044962        -0.915405
 H        -1.010075        -1.637955         0.255254
