19
Iteration:  2303
 O        -3.889925        -1.402104         1.155986
 C        -2.749453        -0.635016         1.158730
 C        -2.015735        -0.542354         2.539617
 C        -1.435527         0.739819         1.826855
 C        -2.804505         0.934502         1.052146
 C        -2.020453         1.386569        -0.196317
 C        -0.824847         0.403115         0.340118
 O         0.472524         0.832712        -0.058598
 C        -1.490360        -1.007801         0.136200
 H        -4.306811        -1.106378         0.367308
 H        -2.757868        -0.097919         3.242152
 H        -1.482684        -1.326463         3.104057
 H        -0.929181         1.519344         2.267344
 H        -3.633306         1.472423         1.393985
 H        -2.556341         1.097722        -1.152332
 H        -1.787532         2.489991        -0.159265
 H         0.144113         1.332775        -0.831197
 H        -1.821035        -1.261968        -0.891224
 H        -0.843247        -1.839488         0.494682
