19
Iteration:  2284
 O        -3.894463        -1.464062         1.229534
 C        -2.688520        -0.720072         1.071566
 C        -1.932709        -0.469609         2.419811
 C        -1.480892         0.829722         1.867955
 C        -2.758698         0.939629         1.022575
 C        -2.030141         1.417434        -0.228310
 C        -0.948083         0.547415         0.383633
 O         0.386498         0.584536        -0.022374
 C        -1.492326        -0.868176         0.153153
 H        -4.390772        -1.406631         0.418971
 H        -2.595021        -0.518533         3.303631
 H        -1.127602        -1.253567         2.563954
 H        -1.118126         1.719021         2.423799
 H        -3.727937         1.396198         1.344498
 H        -2.263633         1.315592        -1.294406
 H        -1.606028         2.451904        -0.133552
 H         0.797806         1.473736        -0.198331
 H        -1.823805        -1.082902        -0.909445
 H        -0.794551        -1.628639         0.563503
