19
Iteration:  4792
 O        -3.941455        -1.454410         1.247455
 C        -2.682772        -0.650475         1.133478
 C        -1.917320        -0.534684         2.391872
 C        -1.505095         0.777381         1.791944
 C        -2.847154         0.904445         0.959420
 C        -2.038810         1.492867        -0.202187
 C        -0.849917         0.500242         0.354920
 O         0.630438         0.599811         0.151960
 C        -1.681462        -0.799463         0.042702
 H        -4.489241        -1.344511         0.472995
 H        -2.420789        -0.346864         3.394465
 H        -1.212991        -1.379737         2.598149
 H        -1.146587         1.622544         2.324346
 H        -3.797653         1.188728         1.595647
 H        -2.484269         1.445050        -1.185767
 H        -1.822702         2.566317         0.051688
 H         0.746972         0.535219        -0.784400
 H        -1.927849        -0.820303        -1.003729
 H        -0.942904        -1.562434         0.168016
