19
Iteration:  4609
 O        -4.001867        -1.437284         1.047460
 C        -2.762729        -0.709019         1.114390
 C        -1.849212        -0.545755         2.473012
 C        -1.459009         0.836164         1.889479
 C        -2.775308         0.970673         1.096047
 C        -2.047523         1.484984        -0.155062
 C        -0.905512         0.518240         0.343333
 O         0.494377         0.573415         0.031426
 C        -1.543292        -0.833588         0.164076
 H        -4.301157        -1.620977         0.124444
 H        -2.426372        -0.350404         3.412928
 H        -1.154026        -1.285324         2.696692
 H        -0.929351         1.635668         2.345747
 H        -3.615489         1.674850         1.442614
 H        -2.285401         1.355895        -1.194628
 H        -1.844436         2.597092        -0.193471
 H         0.420487         0.358905        -0.937269
 H        -1.765577        -1.268413        -0.877958
 H        -0.622221        -1.420115         0.500679
