19
Iteration:  4620charge 0 multiplicity 1
 O        -3.935878        -1.432261         1.100977
 C        -2.711529        -0.617285         1.094401
 C        -1.834080        -0.541845         2.481968
 C        -1.488306         0.822326         1.884441
 C        -2.762018         0.948283         1.058540
 C        -1.974566         1.520182        -0.248241
 C        -0.942273         0.538128         0.349254
 O         0.387416         0.538157         0.097974
 C        -1.549203        -0.858629         0.127105
 H        -4.305013        -1.492034         0.165832
 H        -2.442356        -0.714289         3.381068
 H        -0.971059        -1.131811         2.466034
 H        -1.071126         1.648051         2.415001
 H        -3.702694         1.294482         1.599426
 H        -2.414140         1.268989        -1.197537
 H        -1.802490         2.587909         0.014631
 H         0.682774         0.317236        -0.843029
 H        -1.788415        -0.912961        -0.991376
 H        -1.019240        -1.774510         0.522661
