19
Iteration:  1327
 O        -3.950153        -1.317273         0.876540
 C        -2.678118        -0.665095         1.192292
 C        -1.941429        -0.574380         2.666954
 C        -1.332027         0.660709         1.983282
 C        -2.723291         0.864525         1.152865
 C        -2.078177         1.311695        -0.142138
 C        -0.897250         0.459954         0.327084
 O         0.323480         0.928497        -0.238587
 C        -1.442067        -0.991380         0.190651
 H        -4.639535        -0.663458         0.959854
 H        -2.716048        -0.080194         3.384105
 H        -1.294151        -1.311246         3.237912
 H        -0.688734         1.549653         2.361076
 H        -3.626067         1.283413         1.700749
 H        -2.508765         1.207820        -1.213197
 H        -1.800528         2.416146         0.016736
 H         0.142289         0.697973        -1.178532
 H        -1.680244        -1.315115        -0.893438
 H        -0.801662        -1.836121         0.632442
