19
Iteration:  3061charge 0 multiplicity 1
 O        -3.832990        -1.605828         1.233170
 C        -2.776040        -0.617472         1.108317
 C        -1.949131        -0.485035         2.372835
 C        -1.353803         0.717194         1.758139
 C        -2.717930         1.064544         1.099738
 C        -2.090801         1.532798        -0.172843
 C        -0.957703         0.530698         0.260728
 O         0.415567         0.621470         0.078099
 C        -1.638588        -0.870340         0.029486
 H        -3.968973        -1.936677         0.345202
 H        -2.661097        -0.263658         3.203364
 H        -1.366951        -1.373726         2.596304
 H        -0.821395         1.460461         2.331857
 H        -3.412640         1.602498         1.746153
 H        -2.454305         1.486393        -1.186650
 H        -1.724255         2.505228         0.099417
 H         0.947494         1.050663         0.738949
 H        -1.922956        -1.094347        -0.958835
 H        -0.883080        -1.642687         0.302493
