19
Iteration:  4876charge 0 multiplicity 1
 O        -3.991427        -1.319828         1.068246
 C        -2.709921        -0.669714         1.115313
 C        -1.986420        -0.571776         2.518180
 C        -1.416843         0.699770         1.932980
 C        -2.810349         0.926285         1.095773
 C        -1.971371         1.485764        -0.190017
 C        -0.912651         0.506702         0.330959
 O         0.403172         0.721359        -0.077806
 C        -1.408919        -0.898613         0.150084
 H        -4.007632        -2.066372         0.397773
 H        -2.691656        -0.199636         3.226878
 H        -1.343133        -1.424090         2.766971
 H        -0.901726         1.498517         2.541577
 H        -3.718401         1.484793         1.429733
 H        -2.441749         1.369696        -1.219381
 H        -1.875990         2.556747        -0.019331
 H         0.715500        -0.038938        -0.676324
 H        -1.603967        -1.251512        -0.928780
 H        -0.875555        -1.565882         0.870989
