19
Iteration:  4283
 O        -3.953608        -1.355454         0.965404
 C        -2.750650        -0.667150         1.181422
 C        -1.971612        -0.542620         2.482006
 C        -1.396742         0.795961         1.879378
 C        -2.824906         0.914666         1.118074
 C        -2.035143         1.433709        -0.077552
 C        -0.815404         0.442618         0.420643
 O         0.492147         0.627278        -0.117413
 C        -1.581051        -0.884899         0.150336
 H        -3.916254        -1.774789         0.067392
 H        -2.558536        -0.209068         3.361067
 H        -1.362265        -1.436968         2.649616
 H        -0.969823         1.560224         2.481490
 H        -3.674967         1.514330         1.589465
 H        -2.345298         1.381069        -1.150955
 H        -1.669647         2.487938        -0.098575
 H         0.609641         1.627386        -0.212650
 H        -1.921507        -1.058388        -0.900478
 H        -1.053223        -1.834749         0.469327
