19
Iteration:  4420charge 0 multiplicity 1
 O        -3.875265        -1.308681         0.883014
 C        -2.728845        -0.559676         1.198866
 C        -1.940895        -0.573848         2.607710
 C        -1.435079         0.754705         1.961394
 C        -2.742914         0.949853         1.122483
 C        -1.996309         1.372787        -0.223882
 C        -0.939543         0.497424         0.335578
 O         0.370668         0.725296        -0.101957
 C        -1.543080        -0.958416         0.241855
 H        -3.792416        -1.625826        -0.015549
 H        -2.674886        -0.396030         3.392665
 H        -1.285000        -1.423927         2.781213
 H        -0.955278         1.642498         2.467832
 H        -3.630497         1.322614         1.622368
 H        -2.400474         1.170688        -1.193550
 H        -1.739687         2.440454        -0.225268
 H         0.706757        -0.055167        -0.492011
 H        -2.072514        -1.238638        -0.743529
 H        -0.915194        -1.765309         0.655189
