19
Iteration:  1426
 O        -3.656289        -1.704303         1.091551
 C        -2.684221        -0.692466         1.189879
 C        -2.004645        -0.374132         2.475250
 C        -1.491779         0.894018         1.853846
 C        -2.817456         1.031285         1.043175
 C        -2.020531         1.612270        -0.132038
 C        -0.918034         0.527155         0.340089
 O         0.393260         0.500723        -0.116426
 C        -1.673772        -0.812967         0.069291
 H        -4.041420        -1.755216         1.954592
 H        -2.806983        -0.134417         3.254984
 H        -1.332884        -1.214697         2.783496
 H        -1.035693         1.708167         2.489662
 H        -3.625617         1.634902         1.475099
 H        -2.216076         1.444273        -1.243683
 H        -1.723290         2.689230        -0.007602
 H         0.612591        -0.453962         0.058502
 H        -2.160308        -0.761408        -0.944369
 H        -0.882520        -1.610040         0.168325
