19
Iteration:    12charge 0 multiplicity 1
 O        -3.711004        -1.679066         1.017035
 C        -2.700961        -0.634988         1.206587
 C        -2.000882        -0.400388         2.513474
 C        -1.366050         0.791941         1.798676
 C        -2.743944         0.989952         1.096836
 C        -2.012232         1.516874        -0.180094
 C        -0.974697         0.480351         0.293733
 O         0.372618         0.666726        -0.084753
 C        -1.684068        -0.840827         0.131600
 H        -4.427227        -1.327358         1.512099
 H        -2.627660        -0.035225         3.350500
 H        -1.478556        -1.321920         2.766965
 H        -0.951840         1.607379         2.358394
 H        -3.488650         1.521568         1.700235
 H        -2.620672         1.474743        -1.063979
 H        -1.643754         2.532936         0.041271
 H         0.891359        -0.032834         0.335952
 H        -2.231348        -0.911082        -0.813826
 H        -0.958262        -1.633694         0.227436
