19
Iteration:  4467
 O        -3.885204        -1.500350         1.118572
 C        -2.788761        -0.614054         1.212292
 C        -2.026416        -0.603293         2.524287
 C        -1.381880         0.704554         1.771398
 C        -2.731057         0.975345         0.993393
 C        -2.015889         1.575006        -0.221633
 C        -0.869915         0.548774         0.335904
 O         0.473321         0.643300         0.059079
 C        -1.616525        -0.838339         0.130960
 H        -4.133185        -1.693784         0.205107
 H        -2.564424        -0.306580         3.521942
 H        -1.426259        -1.519884         2.634667
 H        -1.090254         1.562533         2.360848
 H        -3.530227         1.695220         1.464136
 H        -2.410885         1.484765        -1.221854
 H        -1.933589         2.682389        -0.112351
 H         0.917570         0.016601        -0.565861
 H        -1.814018        -0.985893        -0.925849
 H        -1.008972        -1.679753         0.520354
