19
Iteration:  4952charge 0 multiplicity 1
 O        -3.808550        -1.403083         1.048961
 C        -2.753467        -0.590373         1.039800
 C        -1.954286        -0.586438         2.431563
 C        -1.417956         0.702125         1.834154
 C        -2.796471         0.987829         1.068146
 C        -2.031150         1.540277        -0.067099
 C        -1.008912         0.489189         0.344776
 O         0.452447         0.580189        -0.014641
 C        -1.603010        -0.900124         0.054181
 H        -3.917391        -1.729541         1.947325
 H        -2.624221        -0.408843         3.260361
 H        -1.203360        -1.350661         2.672755
 H        -0.821575         1.455350         2.410655
 H        -3.724106         1.519921         1.360343
 H        -2.319271         1.515719        -1.172630
 H        -1.635566         2.557754         0.073024
 H         0.830497         1.182397         0.612296
 H        -1.914157        -1.077307        -0.997429
 H        -0.944116        -1.694131         0.479104
