19
Iteration:  4122charge 0 multiplicity 1
 O        -3.825448        -1.421831         0.888996
 C        -2.746734        -0.554218         1.168623
 C        -1.955028        -0.597373         2.435215
 C        -1.427312         0.673504         1.880637
 C        -2.702511         1.112868         1.200552
 C        -2.010973         1.489329         0.002428
 C        -0.990760         0.422314         0.378724
 O         0.399077         0.730512        -0.102533
 C        -1.667478        -0.941596         0.190742
 H        -3.538760        -1.982780         0.182008
 H        -2.702316        -0.247302         3.139885
 H        -1.257300        -1.445659         2.611328
 H        -0.744584         1.289722         2.399524
 H        -3.531394         1.603569         1.702045
 H        -2.464946         1.334492        -1.039920
 H        -1.630672         2.499895        -0.109984
 H         0.821940        -0.059298        -0.398561
 H        -1.978989        -0.999174        -0.947745
 H        -0.898933        -1.662624         0.471024
