19
Iteration:  3907
 O        -3.950125        -1.367073         0.986518
 C        -2.770516        -0.632215         1.116635
 C        -1.875565        -0.626727         2.384600
 C        -1.454895         0.773871         1.883667
 C        -2.768395         0.952621         1.073581
 C        -1.993769         1.469236        -0.142607
 C        -0.917269         0.470895         0.377913
 O         0.424950         0.734202        -0.029014
 C        -1.569920        -0.967902         0.113526
 H        -4.430794        -1.171461         1.814706
 H        -2.340565        -0.624195         3.404527
 H        -1.050224        -1.380166         2.513112
 H        -1.109924         1.778815         2.301580
 H        -3.616045         1.476190         1.520302
 H        -2.434262         1.187550        -1.083409
 H        -1.749483         2.533120        -0.019183
 H         1.106617         0.415124         0.601800
 H        -1.738099        -1.208525        -0.962356
 H        -0.787789        -1.636634         0.561073
