19
Iteration:  3230
 O        -3.916689        -1.366035         1.185396
 C        -2.744627        -0.584631         1.113802
 C        -1.848341        -0.549854         2.409862
 C        -1.365913         0.769565         1.830725
 C        -2.743640         0.963085         1.137798
 C        -2.073734         1.344001        -0.247527
 C        -0.878783         0.424749         0.282558
 O         0.431503         0.817745         0.245540
 C        -1.738489        -0.956819        -0.049305
 H        -3.857645        -2.116611         0.633562
 H        -2.587772        -0.355691         3.174310
 H        -1.031855        -1.345916         2.558810
 H        -0.574454         1.301618         2.299498
 H        -3.639145         1.531859         1.408340
 H        -2.444667         1.028313        -1.197334
 H        -1.903190         2.389095        -0.187406
 H         0.870086         0.699794        -0.588482
 H        -1.908962        -0.856145        -1.200715
 H        -1.192982        -1.895339         0.161804
