19
Iteration:  4781
 O        -3.911796        -1.399289         1.241036
 C        -2.784659        -0.698949         1.151048
 C        -1.949092        -0.573940         2.442472
 C        -1.447195         0.781816         1.760311
 C        -2.807280         0.883040         1.031560
 C        -1.983405         1.442447        -0.183856
 C        -0.894658         0.516927         0.381130
 O         0.518721         0.662559         0.131072
 C        -1.555223        -0.821185        -0.003393
 H        -4.257141        -1.341532         0.324646
 H        -2.708530        -0.406661         3.274032
 H        -1.186587        -1.373006         2.628212
 H        -1.023214         1.647665         2.220344
 H        -3.640473         1.641213         1.262396
 H        -2.204103         1.250668        -1.227062
 H        -1.783056         2.530267        -0.016627
 H         0.581867         0.505601        -0.845749
 H        -2.118345        -0.755672        -0.917299
 H        -1.059638        -1.757043         0.085503
