19
Iteration:  4260
 O        -3.967757        -1.317707         0.933664
 C        -2.733198        -0.693968         1.116753
 C        -2.028931        -0.623204         2.539139
 C        -1.469579         0.717811         1.989717
 C        -2.716027         0.971720         1.092553
 C        -1.936521         1.511526        -0.049261
 C        -0.915545         0.509634         0.311442
 O         0.425848         0.643382        -0.178365
 C        -1.494467        -0.901513         0.248253
 H        -3.795669        -2.243474         0.631728
 H        -2.779322        -0.482011         3.358362
 H        -1.252823        -1.343442         2.755596
 H        -1.092535         1.533004         2.594943
 H        -3.629252         1.591742         1.392061
 H        -2.248818         1.485560        -1.091457
 H        -1.613840         2.593249         0.028225
 H         0.305443         1.141460        -1.002438
 H        -1.629543        -1.214713        -0.784503
 H        -0.816598        -1.655880         0.720958
