19
Iteration:  1702charge 0 multiplicity 1
 O        -3.792347        -1.415838         0.920004
 C        -2.667886        -0.692309         1.148804
 C        -1.880682        -0.433859         2.624881
 C        -1.462073         0.884700         1.837239
 C        -2.770057         0.939908         1.143005
 C        -2.116297         1.509412        -0.082074
 C        -0.992331         0.486387         0.297541
 O         0.330521         0.425534        -0.152637
 C        -1.532240        -0.834900         0.150955
 H        -3.565963        -2.374534         0.841693
 H        -2.585586        -0.137625         3.415571
 H        -1.026663        -1.007610         3.049920
 H        -0.989178         1.754538         2.346761
 H        -3.693687         1.384205         1.603983
 H        -2.669836         1.389603        -1.078667
 H        -1.876569         2.591550         0.070262
 H         0.821763         1.229484         0.188424
 H        -1.894426        -1.089700        -0.868685
 H        -0.827114        -1.695917         0.370833
