19
Iteration:  2389
 O        -3.807321        -1.643454         1.247818
 C        -2.805681        -0.672784         1.138323
 C        -1.935230        -0.437891         2.515864
 C        -1.491117         0.767411         1.817646
 C        -2.831807         0.984445         1.004975
 C        -1.907587         1.596301        -0.164165
 C        -0.915411         0.526246         0.326628
 O         0.413236         0.546966        -0.041618
 C        -1.630270        -0.778092        -0.023117
 H        -4.125752        -2.058349         0.427760
 H        -2.591649        -0.234325         3.357172
 H        -1.125258        -1.059130         2.797444
 H        -0.939682         1.528331         2.268105
 H        -3.588029         1.611522         1.350566
 H        -2.217807         1.594301        -1.199887
 H        -1.595538         2.559532         0.231562
 H         0.999559         0.624703         0.757371
 H        -2.101774        -0.706946        -0.982383
 H        -0.958176        -1.635120        -0.025328
