19
Iteration:  1334charge 0 multiplicity 1
 O        -3.945149        -1.312365         0.932799
 C        -2.681556        -0.723616         1.178534
 C        -1.888812        -0.587740         2.609484
 C        -1.328685         0.734002         1.921996
 C        -2.737869         0.848448         1.088026
 C        -2.113986         1.304622        -0.139089
 C        -0.904368         0.451798         0.321587
 O         0.366573         0.907680        -0.147902
 C        -1.508094        -0.953952         0.187579
 H        -4.623980        -0.613236         1.191709
 H        -2.665411        -0.253274         3.259100
 H        -1.291656        -1.287356         3.173663
 H        -0.744946         1.495938         2.310786
 H        -3.603573         1.168109         1.630965
 H        -2.461199         1.204772        -1.139493
 H        -1.716101         2.330792        -0.023180
 H         0.387754         0.869942        -1.109478
 H        -1.915403        -1.062399        -0.789884
 H        -0.896223        -1.741667         0.588468
