19
Iteration:  2594
 O        -3.805396        -1.536800         1.174213
 C        -2.702915        -0.613921         1.109254
 C        -1.838621        -0.501016         2.402707
 C        -1.355283         0.748409         1.871384
 C        -2.800047         1.022080         1.109610
 C        -2.132180         1.466300        -0.173294
 C        -0.949793         0.463546         0.346281
 O         0.452584         0.606648         0.071641
 C        -1.697578        -0.842239        -0.082747
 H        -4.424870        -1.281127         0.516568
 H        -2.537374        -0.258376         3.261720
 H        -1.139536        -1.285744         2.743528
 H        -0.668193         1.429368         2.283101
 H        -3.612071         1.611768         1.370202
 H        -2.676256         1.136531        -1.089662
 H        -1.893832         2.531941        -0.096987
 H         0.879485         1.156208         0.755859
 H        -2.076955        -0.722581        -1.115302
 H        -1.234478        -1.844411         0.116666
