19
Iteration:  3586charge 0 multiplicity 1
 O        -3.845105        -1.500332         1.067188
 C        -2.748988        -0.671272         1.132144
 C        -1.967276        -0.459159         2.535583
 C        -1.418037         0.811026         1.858641
 C        -2.765476         1.017478         1.141815
 C        -2.029122         1.464812        -0.198091
 C        -0.920452         0.518787         0.311804
 O         0.404459         0.493083        -0.017972
 C        -1.597311        -0.841942         0.082322
 H        -3.901451        -1.608222         0.075543
 H        -2.527773        -0.112597         3.386439
 H        -1.361524        -1.248690         2.974189
 H        -0.952668         1.571823         2.407054
 H        -3.658434         1.468705         1.601548
 H        -2.414604         1.237711        -1.178777
 H        -1.712952         2.468096        -0.092805
 H         0.852579         1.395122         0.011072
 H        -1.792243        -0.947190        -1.016173
 H        -0.875363        -1.678147         0.350216
