19
Iteration:  4870charge 0 multiplicity 1
 O        -4.001661        -1.382196         1.079641
 C        -2.745461        -0.659237         1.111198
 C        -2.016394        -0.541114         2.466865
 C        -1.418951         0.701897         1.891139
 C        -2.829252         0.899577         1.153922
 C        -2.021571         1.463121        -0.164099
 C        -0.855300         0.511897         0.293575
 O         0.511328         0.727833        -0.078733
 C        -1.442563        -0.860056         0.200773
 H        -4.157403        -1.964051         0.332314
 H        -2.693451        -0.056396         3.261716
 H        -1.323062        -1.313698         2.862307
 H        -1.011839         1.506320         2.451324
 H        -3.694489         1.497184         1.527056
 H        -2.399243         1.336014        -1.168591
 H        -1.644121         2.526903        -0.102077
 H         0.596120        -0.011075        -0.708941
 H        -1.743912        -0.988850        -0.820995
 H        -0.880519        -1.730642         0.588632
