19
Iteration:   258charge 0 multiplicity 1
 O        -3.942695        -1.352271         1.178402
 C        -2.663656        -0.682826         1.134982
 C        -1.836760        -0.639592         2.346385
 C        -1.445936         0.784466         1.804025
 C        -2.785260         0.895526         1.185865
 C        -2.099913         1.452851        -0.115211
 C        -0.919003         0.482372         0.344772
 O         0.448008         0.680830        -0.056701
 C        -1.553396        -0.849227         0.099006
 H        -4.246382        -1.701465         0.352361
 H        -2.415047        -0.590910         3.288613
 H        -1.055323        -1.425831         2.551847
 H        -0.962711         1.546842         2.461004
 H        -3.635909         1.223794         1.708279
 H        -2.687489         1.310517        -1.080024
 H        -1.948667         2.532340        -0.029747
 H         0.489725         1.585606        -0.376795
 H        -1.913653        -0.848140        -0.982067
 H        -0.812026        -1.695871         0.241598
