19
Iteration:  2907charge 0 multiplicity 1
 O        -3.821159        -1.624565         1.187301
 C        -2.663376        -0.598296         1.112006
 C        -1.831384        -0.467719         2.360394
 C        -1.473748         0.887645         1.793124
 C        -2.860999         0.962744         1.004917
 C        -2.088464         1.567790        -0.089372
 C        -0.934946         0.573825         0.354783
 O         0.403658         0.404383         0.031519
 C        -1.584793        -0.800569         0.045972
 H        -4.524677        -1.304739         0.536668
 H        -2.435067        -0.462303         3.261757
 H        -1.021034        -1.184528         2.331330
 H        -1.061968         1.799667         2.231422
 H        -3.769195         1.357091         1.418541
 H        -2.530877         1.722700        -1.024298
 H        -1.686785         2.515079         0.162281
 H         0.890026         0.557378         0.883660
 H        -1.786473        -0.885933        -1.016890
 H        -0.892427        -1.592142         0.406700
