19
Iteration:  2702charge 0 multiplicity 1
 O        -3.945732        -1.370826         1.065968
 C        -2.737171        -0.669760         1.105929
 C        -1.878030        -0.609490         2.414834
 C        -1.362323         0.746589         1.773557
 C        -2.772604         0.935884         1.149396
 C        -2.113698         1.521992        -0.102135
 C        -0.904626         0.479602         0.346219
 O         0.437574         0.675868        -0.022997
 C        -1.591590        -0.905026         0.062031
 H        -3.802412        -2.291638         1.284703
 H        -2.405537        -0.339101         3.356531
 H        -1.151211        -1.425128         2.538580
 H        -1.052596         1.586181         2.336204
 H        -3.585306         1.376274         1.625263
 H        -2.477907         1.583342        -1.165451
 H        -1.819338         2.592963         0.056203
 H         0.748668         1.470931         0.403452
 H        -1.819938        -1.214674        -0.974478
 H        -0.939339        -1.698899         0.519465
