19
Iteration:  1766
 O        -3.897093        -1.455512         1.320458
 C        -2.753685        -0.667454         1.089135
 C        -1.883143        -0.561674         2.327420
 C        -1.377947         0.743521         1.791763
 C        -2.735379         1.001376         1.123355
 C        -2.042988         1.493266        -0.193487
 C        -0.893409         0.427140         0.266772
 O         0.429080         0.759934         0.123832
 C        -1.668892        -0.956777        -0.029285
 H        -4.195871        -2.051089         0.557377
 H        -2.524733        -0.409022         3.231392
 H        -1.117247        -1.332768         2.589423
 H        -0.786670         1.523465         2.214256
 H        -3.685336         1.419774         1.454882
 H        -2.488968         1.322456        -1.236542
 H        -1.538698         2.477548        -0.180267
 H         0.385384         1.692492         0.367857
 H        -2.003394        -0.820723        -1.103108
 H        -1.041439        -1.929043         0.173444
