19
Iteration:   317
 O        -3.795048        -1.475493         0.801236
 C        -2.676324        -0.607202         1.159703
 C        -1.974014        -0.555050         2.672353
 C        -1.350661         0.746424         2.025695
 C        -2.725211         0.971328         1.278177
 C        -2.089567         1.531472         0.024904
 C        -0.906811         0.493033         0.317240
 O         0.242401         0.599832        -0.457218
 C        -1.488347        -0.912358         0.225390
 H        -4.100820        -1.247723        -0.158651
 H        -2.694486        -0.120343         3.395629
 H        -1.432112        -1.423617         3.089274
 H        -0.747086         1.419502         2.627128
 H        -3.697850         1.323331         1.777459
 H        -2.795861         1.412696        -0.893995
 H        -1.951361         2.616407         0.204999
 H         0.562271         1.492680        -0.212618
 H        -1.731797        -1.316596        -0.795740
 H        -0.786425        -1.647909         0.678180
