19
Iteration:  4110charge 0 multiplicity 1
 O        -3.863959        -1.310925         0.811438
 C        -2.731144        -0.653171         1.136990
 C        -1.960245        -0.623903         2.538218
 C        -1.375476         0.693741         1.941543
 C        -2.713327         1.055159         1.255821
 C        -2.028147         1.485075        -0.100099
 C        -0.927985         0.489493         0.381715
 O         0.296882         0.714477        -0.164478
 C        -1.513896        -0.921741         0.200003
 H        -3.638135        -1.980294         0.144270
 H        -2.527311        -0.402775         3.452969
 H        -1.345597        -1.440235         2.958656
 H        -0.952995         1.433989         2.554817
 H        -3.575103         1.636440         1.610011
 H        -2.647108         1.200418        -0.998960
 H        -1.575198         2.460113        -0.062580
 H         0.728766        -0.163355        -0.183760
 H        -2.063229        -1.057910        -0.824570
 H        -1.082430        -1.906076         0.414057
