19
Iteration:  1386charge 0 multiplicity 1
 O        -3.691468        -1.663750         1.223027
 C        -2.732206        -0.656258         1.141758
 C        -1.815812        -0.473756         2.305530
 C        -1.487174         0.886788         1.719499
 C        -2.815341         1.061537         1.024753
 C        -2.035027         1.596185        -0.219191
 C        -0.993256         0.594224         0.310452
 O         0.410074         0.444017         0.287557
 C        -1.742464        -0.791253        -0.056213
 H        -3.892791        -1.958904         2.176487
 H        -2.213156        -0.332425         3.286342
 H        -1.010816        -1.203818         2.397813
 H        -0.990536         1.673023         2.216155
 H        -3.668815         1.492556         1.516574
 H        -2.394172         1.443752        -1.224486
 H        -1.866564         2.615624        -0.020174
 H         0.707923         0.139268        -0.574568
 H        -2.355671        -0.801777        -0.944470
 H        -1.106898        -1.648970        -0.036766
