19
Iteration:  4070
 O        -3.994916        -1.227454         0.927852
 C        -2.642852        -0.678710         1.155273
 C        -1.957471        -0.671426         2.502137
 C        -1.434378         0.723441         1.904376
 C        -2.776595         0.933221         1.116512
 C        -2.055341         1.499061        -0.082905
 C        -0.869390         0.464353         0.366065
 O         0.405144         0.753076        -0.150465
 C        -1.534463        -0.957673         0.108254
 H        -4.210714        -2.189117         0.963719
 H        -2.567263        -0.478403         3.424211
 H        -1.207730        -1.531395         2.650632
 H        -1.034592         1.472592         2.653849
 H        -3.523680         1.323063         1.799257
 H        -2.523023         1.442899        -1.121627
 H        -1.564835         2.514242         0.063746
 H         1.138682         0.578837         0.453201
 H        -1.688248        -0.971410        -0.966807
 H        -0.895178        -1.787838         0.464287
