19
Iteration:  4704
 O        -3.834389        -1.341630         1.016237
 C        -2.657213        -0.638141         1.115277
 C        -1.942111        -0.506737         2.483506
 C        -1.519832         0.875847         1.944926
 C        -2.799920         0.992887         1.087170
 C        -1.994774         1.422514        -0.108141
 C        -0.906982         0.397732         0.409310
 O         0.393798         0.587773        -0.048403
 C        -1.529478        -0.948249         0.120337
 H        -3.988912        -1.488955         0.089057
 H        -2.578682        -0.362263         3.410249
 H        -1.316849        -1.449543         2.705732
 H        -1.166743         1.714954         2.557581
 H        -3.750607         1.357163         1.608886
 H        -2.361919         1.395615        -1.170865
 H        -1.783132         2.540725        -0.056376
 H         0.407109         0.571657        -0.982282
 H        -2.021009        -1.028861        -0.856306
 H        -0.932679        -1.819976         0.262236
