19
Iteration:   962charge 0 multiplicity 1
 O        -3.988626        -1.239417         0.914281
 C        -2.645330        -0.662157         1.209693
 C        -1.906722        -0.541451         2.577924
 C        -1.307963         0.740077         1.878201
 C        -2.672885         0.839016         1.201813
 C        -2.238762         1.338008        -0.100108
 C        -0.969711         0.505575         0.322494
 O         0.371937         0.685766        -0.181979
 C        -1.383597        -0.908611         0.229505
 H        -4.182863        -1.101508        -0.079643
 H        -2.394308        -0.344163         3.547098
 H        -1.268135        -1.423307         2.798102
 H        -0.946792         1.526167         2.411380
 H        -3.698835         1.119922         1.640366
 H        -2.763711         0.999240        -0.956234
 H        -2.012058         2.410948        -0.240629
 H         0.194285         1.406536        -0.803726
 H        -1.649058        -1.310405        -0.791663
 H        -0.661842        -1.630071         0.598301
