19
Iteration:  4154
 O        -3.963076        -1.483330         1.170567
 C        -2.678689        -0.715807         1.128345
 C        -1.918642        -0.612670         2.398507
 C        -1.468278         0.693816         1.828809
 C        -2.772934         0.950764         1.025067
 C        -1.961495         1.617543        -0.088145
 C        -0.909259         0.556026         0.396795
 O         0.504386         0.657573         0.040369
 C        -1.652697        -0.771312         0.011976
 H        -4.284975        -1.536176         0.250763
 H        -2.586472        -0.366624         3.233613
 H        -1.283190        -1.404791         2.815094
 H        -1.036172         1.457607         2.420923
 H        -3.573128         1.383799         1.624059
 H        -2.341666         1.370780        -1.107555
 H        -1.837251         2.617756         0.264993
 H         0.690420        -0.174098        -0.432720
 H        -1.952204        -0.702891        -1.112054
 H        -0.862264        -1.533360        -0.065151
