19
Iteration:  1108charge 0 multiplicity 1
 O        -3.886779        -1.443926         1.108929
 C        -2.639536        -0.731790         1.107818
 C        -1.999515        -0.596244         2.453705
 C        -1.429845         0.714549         1.949981
 C        -2.759037         0.941852         1.236870
 C        -2.010909         1.535105         0.011436
 C        -0.921754         0.527062         0.306799
 O         0.353930         0.690725        -0.256812
 C        -1.493960        -0.920157         0.034302
 H        -4.353482        -1.056213         0.391314
 H        -2.765366        -0.245893         3.169345
 H        -1.307181        -1.393544         2.759209
 H        -0.910324         1.513383         2.493713
 H        -3.627253         1.199130         1.772998
 H        -2.320670         1.364343        -1.002965
 H        -1.752967         2.559935         0.290393
 H         0.615313         1.647413        -0.310854
 H        -1.893774        -0.855794        -0.996212
 H        -0.854309        -1.817512         0.259532
