19
Iteration:  3216charge 0 multiplicity 1
 O        -3.993720        -1.322273         1.184942
 C        -2.673526        -0.710902         1.096842
 C        -1.830491        -0.570821         2.367497
 C        -1.379346         0.751830         1.770570
 C        -2.743075         0.989501         1.075260
 C        -2.090583         1.434704        -0.213923
 C        -0.991026         0.503598         0.294911
 O         0.444679         0.690367         0.238259
 C        -1.553438        -0.899529         0.028176
 H        -3.933757        -2.177832         0.667351
 H        -2.419472        -0.493102         3.301048
 H        -1.079682        -1.368474         2.632607
 H        -0.922792         1.647955         2.285417
 H        -3.677019         1.342341         1.686949
 H        -2.694444         1.084540        -1.086582
 H        -1.727428         2.466312        -0.334229
 H         0.666020         0.957942        -0.706464
 H        -2.135095        -1.083599        -0.855888
 H        -0.906739        -1.719873         0.292992
