19
Iteration:  3741charge 0 multiplicity 1
 O        -3.853083        -1.428038         1.048362
 C        -2.667174        -0.703444         1.117829
 C        -1.993057        -0.551089         2.461186
 C        -1.486852         0.803154         1.853081
 C        -2.721742         0.857262         1.121604
 C        -1.956446         1.540933        -0.138593
 C        -0.890220         0.499229         0.422224
 O         0.371194         0.618876        -0.144137
 C        -1.587678        -0.837369         0.090866
 H        -4.542350        -0.783375         1.105992
 H        -2.692999        -0.367384         3.285628
 H        -1.260932        -1.343980         2.826741
 H        -0.917956         1.653939         2.403542
 H        -3.687657         1.245102         1.497033
 H        -2.416428         1.376082        -1.158336
 H        -1.856924         2.598417         0.094076
 H         0.887425         0.449253         0.623662
 H        -1.922559        -0.919815        -1.020998
 H        -0.989274        -1.752673         0.400092
