19
Iteration:  4150charge 0 multiplicity 1
 O        -3.962363        -1.502497         1.140820
 C        -2.746283        -0.665056         1.120984
 C        -1.917278        -0.624960         2.437779
 C        -1.429030         0.686126         1.834165
 C        -2.730280         0.941103         1.062105
 C        -1.977923         1.602321        -0.098962
 C        -0.922241         0.576049         0.373838
 O         0.489432         0.665198         0.031558
 C        -1.629449        -0.796132         0.023061
 H        -4.250572        -1.708133         0.208650
 H        -2.597196        -0.245513         3.251067
 H        -1.291507        -1.442494         2.777257
 H        -1.055434         1.535791         2.452126
 H        -3.576606         1.456034         1.573193
 H        -2.277293         1.476416        -1.126908
 H        -1.770007         2.651716         0.217287
 H         0.680646        -0.183739        -0.436743
 H        -1.936965        -0.650034        -0.978781
 H        -0.879271        -1.607865        -0.048187
