19
Iteration:  4088
 O        -4.015983        -1.201487         0.849375
 C        -2.762926        -0.664915         1.133295
 C        -1.920400        -0.582490         2.517617
 C        -1.398389         0.703968         1.949640
 C        -2.729858         0.799651         1.199262
 C        -2.065000         1.422621        -0.006205
 C        -0.895776         0.542907         0.406769
 O         0.422240         0.704924        -0.270552
 C        -1.487381        -0.848544         0.204875
 H        -3.728823        -2.006020         0.368085
 H        -2.690398        -0.465871         3.297186
 H        -1.344288        -1.413407         2.961517
 H        -0.928156         1.505771         2.435652
 H        -3.699770         1.216726         1.476475
 H        -2.343521         1.114581        -1.059536
 H        -1.947366         2.465897         0.231870
 H         1.077803         0.196053         0.251320
 H        -1.868711        -1.060312        -0.877961
 H        -0.668509        -1.553858         0.453420
