19
Iteration:  4628
 O        -3.818282        -1.396618         1.153189
 C        -2.693917        -0.589639         1.122820
 C        -1.863460        -0.558594         2.406782
 C        -1.473827         0.817613         1.818562
 C        -2.811216         0.950576         1.016712
 C        -1.994106         1.484932        -0.193431
 C        -0.993050         0.525730         0.412588
 O         0.411406         0.556515         0.150382
 C        -1.609783        -0.909013         0.079131
 H        -4.081916        -1.274010         0.189989
 H        -2.483381        -0.531930         3.328638
 H        -1.021980        -1.288916         2.389602
 H        -1.105520         1.625962         2.467928
 H        -3.819242         1.318575         1.385176
 H        -2.482879         1.383610        -1.220767
 H        -1.510880         2.565388        -0.112062
 H         0.672628         0.253170        -0.781846
 H        -2.010226        -0.862334        -0.970135
 H        -1.124101        -1.888476         0.200109
