19
Iteration:   576
 O        -3.748220        -1.669673         1.080435
 C        -2.746140        -0.667412         1.109589
 C        -1.888391        -0.515162         2.430704
 C        -1.465781         0.861335         1.835408
 C        -2.818280         0.978254         1.145358
 C        -1.975972         1.605124        -0.093030
 C        -0.959702         0.580478         0.355331
 O         0.427842         0.536976        -0.002039
 C        -1.705728        -0.769985         0.026720
 H        -4.057649        -2.016261         1.929459
 H        -2.514905        -0.366004         3.314406
 H        -1.055898        -1.186884         2.630634
 H        -0.858840         1.683190         2.212053
 H        -3.553029         1.494323         1.615001
 H        -2.412859         1.539307        -1.142072
 H        -1.756231         2.648785         0.132410
 H         0.511150         0.276648        -0.917496
 H        -2.171871        -0.709338        -0.943409
 H        -1.032885        -1.601125        -0.130747
