19
Iteration:  3097
 O        -3.850725        -1.347931         1.113942
 C        -2.609050        -0.632505         1.133315
 C        -1.759012        -0.563715         2.387482
 C        -1.540330         0.807009         1.851574
 C        -2.793943         0.800991         1.049989
 C        -2.108908         1.378852        -0.226623
 C        -0.930900         0.599694         0.418406
 O         0.366116         0.528248         0.056283
 C        -1.585418        -0.838249         0.044970
 H        -4.484629        -0.724842         0.797522
 H        -2.173348        -0.581090         3.417148
 H        -0.773399        -1.105700         2.408257
 H        -1.228196         1.698862         2.477621
 H        -3.800919         1.330964         1.379567
 H        -2.239722         1.364274        -1.297794
 H        -2.045531         2.383901         0.127931
 H         0.946430         1.203173         0.389977
 H        -2.304074        -0.831040        -0.876613
 H        -0.962395        -1.741488         0.217905
