19
Iteration:   684charge 0 multiplicity 1
 O        -3.834926        -1.606713         1.175934
 C        -2.706035        -0.621357         1.126992
 C        -1.916518        -0.510463         2.430303
 C        -1.358010         0.790665         1.782345
 C        -2.800958         0.981841         1.102311
 C        -2.084027         1.524277        -0.185594
 C        -0.945646         0.519313         0.315752
 O         0.420417         0.682955         0.059356
 C        -1.594773        -0.901878         0.056883
 H        -4.612976        -1.102798         1.025305
 H        -2.473505        -0.461807         3.363638
 H        -1.188200        -1.307955         2.604839
 H        -0.826220         1.588149         2.372970
 H        -3.666538         1.413952         1.604580
 H        -2.507007         1.425282        -1.169429
 H        -1.738466         2.530984        -0.015660
 H         0.646707         0.723782        -0.884396
 H        -1.946237        -1.169425        -0.918897
 H        -0.931781        -1.735657         0.384694
