19
Iteration:  4940charge 0 multiplicity 1
 O        -3.920631        -1.429498         0.983128
 C        -2.702499        -0.671051         1.190046
 C        -1.964558        -0.575433         2.419356
 C        -1.393786         0.760045         1.808515
 C        -2.745396         0.974286         1.145283
 C        -2.052614         1.548755        -0.203983
 C        -0.858782         0.507765         0.322810
 O         0.427221         0.615283        -0.015291
 C        -1.613534        -0.854685         0.084216
 H        -4.098825        -2.030002         1.719173
 H        -2.633635        -0.196079         3.178416
 H        -1.490850        -1.502753         2.797837
 H        -0.896313         1.500442         2.524043
 H        -3.473159         1.376815         1.833087
 H        -2.565483         1.352804        -1.232091
 H        -1.824234         2.608359         0.018166
 H         0.940642         0.868609         0.785727
 H        -1.953462        -1.007601        -0.946560
 H        -0.887760        -1.700084         0.299739
