19
Iteration:  3402
 O        -3.800531        -1.480792         1.137404
 C        -2.747753        -0.659736         1.177426
 C        -1.898847        -0.562540         2.439163
 C        -1.434838         0.813735         1.765050
 C        -2.827706         1.052776         1.067200
 C        -2.050650         1.508552        -0.222119
 C        -0.919170         0.464398         0.340212
 O         0.467674         0.632351         0.059943
 C        -1.693448        -0.870917         0.073122
 H        -4.119053        -1.617232         0.190652
 H        -2.391395        -0.630676         3.371038
 H        -1.096297        -1.282579         2.587640
 H        -0.997744         1.604994         2.332779
 H        -3.683446         1.602777         1.526460
 H        -2.464023         1.356855        -1.278675
 H        -1.679926         2.513202        -0.055635
 H         1.119509         0.318417         0.754793
 H        -2.095582        -0.982246        -0.903970
 H        -1.148972        -1.744004         0.313065
