19
Iteration:  1375charge 0 multiplicity 1
 O        -3.788964        -1.626721         1.184504
 C        -2.712689        -0.651393         1.111083
 C        -1.742130        -0.514835         2.328657
 C        -1.416436         0.845743         1.758110
 C        -2.845974         1.053169         1.064084
 C        -2.093330         1.532339        -0.257260
 C        -0.993675         0.521514         0.263164
 O         0.430388         0.530964         0.285570
 C        -1.728126        -0.776133         0.047077
 H        -4.004912        -1.520901         2.147168
 H        -2.351966        -0.552323         3.208323
 H        -0.933794        -1.241156         2.303433
 H        -0.842809         1.610599         2.221142
 H        -3.761590         1.573123         1.287676
 H        -2.648490         1.370520        -1.165344
 H        -1.733687         2.515108        -0.210105
 H         0.762969         0.541146        -0.640927
 H        -2.016706        -0.773526        -0.991627
 H        -1.094953        -1.604815         0.223674
