19
Iteration:   445charge 0 multiplicity 1
 O        -3.821365        -1.461695         0.918042
 C        -2.679193        -0.637427         1.248651
 C        -1.959903        -0.589035         2.566040
 C        -1.356603         0.751889         1.962413
 C        -2.730198         0.931974         1.215444
 C        -2.107184         1.499484        -0.055908
 C        -0.969264         0.534075         0.271008
 O         0.310443         0.632557        -0.351776
 C        -1.515150        -0.880124         0.220005
 H        -3.968289        -1.280373         0.011484
 H        -2.659198        -0.317042         3.369407
 H        -1.338713        -1.469863         2.847911
 H        -0.892794         1.442468         2.621764
 H        -3.566803         1.423163         1.540531
 H        -2.487489         1.406576        -1.105592
 H        -1.914231         2.538400         0.245478
 H         0.848657         1.321777         0.101631
 H        -2.020069        -1.032678        -0.783980
 H        -0.769137        -1.585501         0.621791
