19
Iteration:  1382
 O        -3.730094        -1.660366         1.211786
 C        -2.714275        -0.658281         1.149317
 C        -1.800318        -0.480883         2.276281
 C        -1.462564         0.854648         1.741170
 C        -2.822218         1.069024         1.044851
 C        -2.041382         1.555630        -0.228244
 C        -0.990769         0.586411         0.272807
 O         0.417752         0.467667         0.304782
 C        -1.742928        -0.786389        -0.014846
 H        -3.880925        -1.780164         2.138005
 H        -2.264002        -0.379655         3.331832
 H        -0.956192        -1.235231         2.328906
 H        -0.909381         1.760164         2.190262
 H        -3.783083         1.515043         1.411374
 H        -2.566166         1.444160        -1.257790
 H        -1.824722         2.666173        -0.094122
 H         0.661073         0.280199        -0.641137
 H        -2.298377        -0.694919        -1.004581
 H        -1.036459        -1.665379         0.119441
