19
Iteration:  1728
 O        -3.824298        -1.527720         1.205715
 C        -2.695303        -0.654256         1.145234
 C        -1.778098        -0.530280         2.374813
 C        -1.497512         0.939935         1.787551
 C        -2.857930         0.904468         1.008402
 C        -2.061970         1.596883        -0.183377
 C        -0.959656         0.571557         0.353004
 O         0.440508         0.363149         0.074428
 C        -1.663573        -0.734276         0.046126
 H        -3.490243        -2.389208         0.896312
 H        -2.292100        -0.448327         3.334978
 H        -0.942330        -1.237371         2.425407
 H        -1.031441         1.754913         2.424528
 H        -3.860064         1.235039         1.369863
 H        -2.468799         1.562973        -1.164938
 H        -2.002608         2.646779         0.115224
 H         0.932723         1.194136         0.318958
 H        -2.145045        -0.679665        -0.906614
 H        -1.144101        -1.625680         0.000692
