19
Iteration:  3853
 O        -3.708424        -1.665173         1.008220
 C        -2.763360        -0.584699         1.148192
 C        -2.001876        -0.471468         2.393297
 C        -1.426559         0.788408         1.866919
 C        -2.854421         1.090736         1.084687
 C        -1.899603         1.584008        -0.101155
 C        -0.950986         0.475533         0.360679
 O         0.368033         0.512331        -0.014615
 C        -1.653430        -0.756648         0.039161
 H        -4.267920        -1.494490         1.815917
 H        -2.705596        -0.373849         3.264462
 H        -1.230388        -1.200603         2.649967
 H        -0.895207         1.690272         2.333668
 H        -3.629254         1.660317         1.602847
 H        -2.301885         1.612355        -1.109043
 H        -1.336783         2.522342         0.104223
 H         0.772024        -0.365860         0.259661
 H        -2.054008        -0.908737        -0.987253
 H        -1.052591        -1.693747         0.329770
