19
Iteration:  1616charge 0 multiplicity 1
 O        -3.916499        -1.384053         1.116990
 C        -2.682124        -0.641623         1.187702
 C        -1.813022        -0.483168         2.459586
 C        -1.412747         0.847137         1.744340
 C        -2.839232         0.907835         1.053225
 C        -2.121384         1.392374        -0.284279
 C        -0.974389         0.493674         0.273410
 O         0.443933         0.683053         0.177363
 C        -1.560747        -0.927092         0.106646
 H        -3.779106        -2.341339         1.400238
 H        -2.283861        -0.393183         3.434950
 H        -0.993260        -1.192179         2.635208
 H        -0.943730         1.743199         2.234071
 H        -3.733441         1.444369         1.490521
 H        -2.614411         1.336127        -1.248969
 H        -1.827272         2.467555        -0.225816
 H         0.823682         0.449990        -0.671506
 H        -2.071285        -1.076824        -0.827797
 H        -0.927664        -1.766226         0.262178
