19
Iteration:  2552
 O        -3.848658        -1.453356         1.225162
 C        -2.676425        -0.632298         1.088847
 C        -1.707313        -0.573220         2.420006
 C        -1.403099         0.823437         1.805459
 C        -2.944100         0.972212         0.954750
 C        -2.097115         1.606955        -0.130664
 C        -0.958306         0.519697         0.361291
 O         0.365657         0.461366         0.079994
 C        -1.607511        -0.866448         0.029250
 H        -4.221141        -1.691187         0.368295
 H        -2.329013        -0.526690         3.330106
 H        -0.887115        -1.266631         2.515195
 H        -0.921564         1.485567         2.492835
 H        -3.931065         1.252641         1.340548
 H        -2.162903         1.660186        -1.182654
 H        -1.914305         2.519976         0.364768
 H         0.855741         1.269401         0.099131
 H        -1.900609        -0.820991        -1.021048
 H        -0.889204        -1.704251         0.143726
