19
Iteration:  4837
 O        -3.769582        -1.500737         1.076097
 C        -2.741795        -0.587368         1.125896
 C        -1.906094        -0.502028         2.498793
 C        -1.422636         0.745640         1.867644
 C        -2.772302         1.023430         1.080525
 C        -1.984445         1.472475        -0.237981
 C        -0.956229         0.478180         0.299182
 O         0.386240         0.622709         0.128495
 C        -1.663586        -0.871254         0.097927
 H        -4.326258        -1.355723         0.312087
 H        -2.613888        -0.300277         3.381129
 H        -1.182401        -1.223340         2.918318
 H        -0.867459         1.458276         2.427881
 H        -3.749973         1.524274         1.478495
 H        -2.306909         1.267445        -1.252582
 H        -1.429072         2.460440        -0.194739
 H         0.626593         0.354390        -0.746699
 H        -2.195936        -0.883148        -0.841009
 H        -1.203668        -1.845803         0.144769
