19
Iteration:   442
 O        -3.828391        -1.473366         0.937368
 C        -2.670185        -0.655536         1.217872
 C        -1.934565        -0.586611         2.564582
 C        -1.360987         0.756931         1.996365
 C        -2.713608         0.935568         1.181723
 C        -2.120860         1.513743        -0.084911
 C        -0.962174         0.537504         0.305221
 O         0.303795         0.620438        -0.329003
 C        -1.532085        -0.855678         0.203391
 H        -4.144600        -1.295745        -0.007952
 H        -2.563123        -0.326371         3.392639
 H        -1.277355        -1.421622         2.801490
 H        -0.819306         1.497271         2.604937
 H        -3.754172         1.380925         1.532897
 H        -2.461487         1.487496        -1.112654
 H        -1.950295         2.621238         0.251707
 H         0.925013         1.196143         0.112758
 H        -1.999051        -1.098109        -0.761067
 H        -0.781071        -1.634741         0.504697
