19
Iteration:   276charge 0 multiplicity 1
 O        -3.915809        -1.350698         0.986308
 C        -2.696939        -0.644090         1.154842
 C        -1.901459        -0.628208         2.570364
 C        -1.337907         0.688367         1.977895
 C        -2.704878         0.910218         1.173035
 C        -2.131991         1.430261        -0.081181
 C        -0.943012         0.544404         0.350274
 O         0.321540         0.745718        -0.263449
 C        -1.501682        -0.942000         0.147808
 H        -4.105002        -1.411869         0.068115
 H        -2.549027        -0.425111         3.439448
 H        -1.301289        -1.481003         2.825912
 H        -0.781053         1.438637         2.610505
 H        -3.623579         1.507337         1.602739
 H        -2.448507         1.150765        -1.035255
 H        -1.826612         2.515330        -0.173685
 H         0.590385         1.627541        -0.524228
 H        -1.681450        -1.313914        -0.825049
 H        -0.906093        -1.717459         0.600355
