19
Iteration:  4557charge 0 multiplicity 1
 O        -3.937944        -1.431961         1.052791
 C        -2.747696        -0.714239         1.134813
 C        -1.990542        -0.503611         2.495478
 C        -1.385784         0.736424         1.849419
 C        -2.742510         1.134680         1.146141
 C        -1.974548         1.462678        -0.207133
 C        -0.877215         0.386348         0.373349
 O         0.367646         0.712517         0.023397
 C        -1.525394        -0.953075         0.158748
 H        -4.059738        -1.461428         0.058863
 H        -2.732681        -0.134916         3.239346
 H        -1.220909        -1.306440         2.815093
 H        -0.692370         1.303087         2.444945
 H        -3.672042         1.481464         1.605123
 H        -2.419900         1.174766        -1.198730
 H        -1.561525         2.440025        -0.330792
 H         0.439804         0.697707        -0.990831
 H        -1.809413        -0.855851        -0.867749
 H        -0.976283        -1.898315         0.283006
