19
Iteration:  4171charge 0 multiplicity 1
 O        -3.830682        -1.392546         1.226205
 C        -2.683388        -0.696052         1.015720
 C        -1.891737        -0.633411         2.370817
 C        -1.531254         0.776152         1.887443
 C        -2.845820         0.905036         1.078741
 C        -1.998047         1.554785        -0.087412
 C        -0.926234         0.533508         0.337425
 O         0.468707         0.624170         0.137429
 C        -1.600579        -0.832098        -0.094844
 H        -4.605325        -0.930832         0.783484
 H        -2.625276        -0.724067         3.211897
 H        -1.022781        -1.283087         2.448693
 H        -1.040767         1.636997         2.452215
 H        -3.855267         1.323257         1.281786
 H        -2.211530         1.631487        -1.143362
 H        -1.544347         2.562151         0.238983
 H         0.762155        -0.161626        -0.387769
 H        -2.040712        -0.732562        -1.042401
 H        -1.047113        -1.804547        -0.070044
