19
Iteration:  2232
 O        -3.745833        -1.699971         1.214252
 C        -2.715817        -0.646580         1.127228
 C        -1.897160        -0.325785         2.503957
 C        -1.388518         0.813721         1.726901
 C        -2.760933         1.091149         1.070933
 C        -2.003936         1.536053        -0.230217
 C        -1.020344         0.541147         0.263998
 O         0.359021         0.537289         0.131236
 C        -1.685613        -0.836918        -0.022228
 H        -3.559660        -2.059956         0.374499
 H        -2.651038        -0.026982         3.222423
 H        -1.530212        -1.222445         2.997879
 H        -0.667464         1.635467         2.247014
 H        -3.756743         1.578106         1.504060
 H        -2.377360         1.170461        -1.198296
 H        -1.876895         2.589645        -0.125608
 H         0.849609        -0.015786         0.765299
 H        -2.119190        -0.802173        -1.019098
 H        -1.204243        -1.801215         0.095509
