19
Iteration:  1900charge 0 multiplicity 1
 O        -3.917582        -1.322885         1.379311
 C        -2.662652        -0.687557         1.090902
 C        -1.691237        -0.680860         2.347444
 C        -1.487708         0.761096         1.778296
 C        -2.813687         0.851606         0.962823
 C        -2.050487         1.469342        -0.315782
 C        -0.965163         0.558654         0.315390
 O         0.401558         0.650546         0.219441
 C        -1.673151        -0.827028        -0.037214
 H        -4.268828        -1.673343         0.488461
 H        -2.179745        -0.668914         3.321038
 H        -0.785338        -1.331802         2.258101
 H        -1.121651         1.699430         2.333939
 H        -3.687782         1.317683         1.499385
 H        -2.397107         1.170644        -1.306981
 H        -1.704025         2.525112        -0.135566
 H         0.801011         1.272924         0.820213
 H        -2.163216        -0.834371        -1.065286
 H        -0.863552        -1.546280         0.189733
