19
Iteration:   243charge 0 multiplicity 1
 O        -3.875265        -1.434496         1.318652
 C        -2.734049        -0.658568         1.093830
 C        -1.740077        -0.621267         2.383691
 C        -1.387609         0.733598         1.803431
 C        -2.841202         0.908946         1.043684
 C        -2.100006         1.495812        -0.142522
 C        -0.955479         0.588193         0.307857
 O         0.436887         0.607270         0.136724
 C        -1.659852        -0.825355        -0.100265
 H        -4.090776        -1.825573         0.475684
 H        -2.299787        -0.566878         3.320662
 H        -0.992410        -1.379569         2.337578
 H        -0.890653         1.637988         2.227915
 H        -3.797251         1.451363         1.483568
 H        -2.410666         1.404688        -1.133541
 H        -1.780265         2.540236         0.175397
 H         0.702160         1.505204        -0.172285
 H        -2.070145        -0.763294        -1.078501
 H        -1.088907        -1.712957         0.089030
