19
Iteration:  3338
 O        -3.901996        -1.478018         1.077263
 C        -2.743751        -0.632920         1.142985
 C        -2.003773        -0.539677         2.397079
 C        -1.328073         0.778116         1.851033
 C        -2.757373         0.949071         1.104918
 C        -1.996392         1.390058        -0.134737
 C        -0.876566         0.481432         0.362168
 O         0.394056         0.833008        -0.063809
 C        -1.638490        -0.996016         0.122664
 H        -4.460111        -1.061748         0.390177
 H        -2.616232        -0.239702         3.228199
 H        -1.269762        -1.296856         2.743610
 H        -0.869490         1.545023         2.417240
 H        -3.528883         1.534914         1.600127
 H        -2.398840         1.375115        -1.185641
 H        -1.536911         2.357903         0.010626
 H         1.099656         0.433158         0.514848
 H        -1.936924        -1.223472        -0.882611
 H        -0.977097        -1.746050         0.465182
