19
Iteration:   471
 O        -3.880402        -1.379771         0.867595
 C        -2.687039        -0.606800         1.141347
 C        -2.009179        -0.564231         2.581354
 C        -1.297878         0.658615         1.944659
 C        -2.643422         0.991852         1.286213
 C        -2.132549         1.440586        -0.056070
 C        -0.925125         0.441647         0.387881
 O         0.294003         0.783280        -0.333239
 C        -1.482511        -0.986306         0.228003
 H        -3.750773        -1.959323         0.144162
 H        -2.656778        -0.164016         3.426118
 H        -1.436299        -1.442899         2.931560
 H        -0.597880         1.380069         2.493774
 H        -3.606376         1.410222         1.759221
 H        -2.639691         1.140075        -0.989425
 H        -1.812858         2.457122        -0.030963
 H         0.036233         1.567862        -0.841601
 H        -1.860543        -1.174076        -0.785565
 H        -0.910786        -1.655099         0.848032
