19
Iteration:  2914
 O        -3.858128        -1.594500         1.255208
 C        -2.675978        -0.642119         1.000177
 C        -1.829407        -0.520530         2.359568
 C        -1.515296         0.884334         1.803101
 C        -2.852105         0.984158         1.009215
 C        -2.046349         1.607135        -0.092952
 C        -0.955516         0.609216         0.325498
 O         0.426623         0.430037         0.002335
 C        -1.536299        -0.851765         0.090279
 H        -4.561235        -1.355790         0.648033
 H        -2.473174        -0.489658         3.245469
 H        -1.037076        -1.315808         2.501057
 H        -1.016361         1.743341         2.364245
 H        -3.925306         1.328538         1.290018
 H        -2.463738         1.699919        -1.150312
 H        -1.900048         2.627977         0.441758
 H         0.947078         0.558580         0.803638
 H        -1.666971        -0.968298        -0.984606
 H        -0.818230        -1.535702         0.453149
