19
Iteration:  3235
 O        -3.879686        -1.363529         1.184436
 C        -2.771521        -0.593955         1.120819
 C        -1.832686        -0.519126         2.426999
 C        -1.380997         0.700602         1.829222
 C        -2.737296         0.966802         1.076992
 C        -2.078737         1.336571        -0.231735
 C        -0.899951         0.411842         0.336399
 O         0.461751         0.863170         0.216678
 C        -1.772842        -0.955879        -0.051508
 H        -3.699214        -2.116321         0.525766
 H        -2.527254        -0.359205         3.296163
 H        -1.338156        -1.478179         2.515620
 H        -0.677869         1.473419         2.288362
 H        -3.550166         1.598659         1.485764
 H        -2.418076         1.026153        -1.265380
 H        -1.764659         2.434977        -0.117227
 H         0.879057         0.519649        -0.632816
 H        -1.943611        -0.769207        -1.070306
 H        -1.338826        -1.956261         0.160966
