19
Iteration:   252
 O        -3.920105        -1.383324         1.241138
 C        -2.691067        -0.656360         1.118909
 C        -1.784982        -0.651878         2.362388
 C        -1.434919         0.813918         1.775971
 C        -2.802390         0.872399         1.113452
 C        -2.128957         1.458397        -0.094909
 C        -0.936422         0.486330         0.342145
 O         0.445459         0.658499         0.032295
 C        -1.581580        -0.805615         0.009109
 H        -4.267828        -1.806730         0.455186
 H        -2.324326        -0.566054         3.305384
 H        -1.097870        -1.498132         2.423551
 H        -0.894537         1.541524         2.331709
 H        -3.718174         1.360455         1.592564
 H        -2.491348         1.367799        -1.139570
 H        -1.798005         2.515269         0.025464
 H         0.715140         1.540885        -0.318067
 H        -1.967969        -0.857420        -0.992209
 H        -0.988695        -1.690601         0.101166
