19
Iteration:  2268charge 0 multiplicity 1
 O        -3.773962        -1.516240         1.201251
 C        -2.713268        -0.581070         1.176094
 C        -1.819942        -0.527557         2.442587
 C        -1.532270         0.889134         1.796397
 C        -2.902670         0.951313         0.946781
 C        -2.020705         1.515740        -0.212060
 C        -0.970777         0.551177         0.346871
 O         0.436824         0.428106         0.015683
 C        -1.588150        -0.819003         0.117619
 H        -4.144405        -1.702549         0.354947
 H        -2.433110        -0.362098         3.329891
 H        -1.015596        -1.234813         2.568481
 H        -1.108549         1.680167         2.420805
 H        -3.798764         1.407773         1.370343
 H        -2.425317         1.294023        -1.231744
 H        -2.088568         2.606364        -0.097767
 H         0.955646         0.977725         0.628111
 H        -1.788651        -0.873602        -0.942679
 H        -0.935167        -1.630759         0.433841
