19
Iteration:  2404charge 0 multiplicity 1
 O        -3.756447        -1.721054         1.331792
 C        -2.731307        -0.636100         1.115143
 C        -2.041015        -0.483401         2.368726
 C        -1.418275         0.826458         1.735198
 C        -2.765174         1.084281         1.070476
 C        -1.865408         1.590800        -0.140813
 C        -0.960984         0.469749         0.268351
 O         0.474301         0.616510         0.041629
 C        -1.798767        -0.874222        -0.029615
 H        -4.029307        -1.841201         0.363245
 H        -2.763870        -0.162969         3.151671
 H        -1.568860        -1.469749         2.713685
 H        -0.893714         1.672952         2.322300
 H        -3.698910         1.446570         1.634818
 H        -2.142349         1.726373        -1.229149
 H        -1.408556         2.604008         0.117961
 H         0.707378         1.124185         0.834189
 H        -2.259268        -0.874696        -1.071779
 H        -1.202925        -1.776923         0.216168
