19
Iteration:  2659
 O        -3.809922        -1.262380         0.887878
 C        -2.651264        -0.632752         1.197235
 C        -1.959452        -0.652512         2.590544
 C        -1.484405         0.814642         2.048988
 C        -2.756818         0.935620         1.199646
 C        -2.100129         1.419922        -0.115386
 C        -0.928782         0.566144         0.382925
 O         0.364258         0.568567        -0.293162
 C        -1.530015        -0.922515         0.176546
 H        -3.458607        -1.885537         0.207147
 H        -2.712171        -0.552082         3.427493
 H        -1.296321        -1.517564         2.809486
 H        -1.055371         1.584297         2.625931
 H        -3.493074         1.311864         1.800605
 H        -2.637663         1.235834        -1.118261
 H        -1.824249         2.518137        -0.117277
 H         0.476825         1.343628        -0.840410
 H        -1.775073        -0.946856        -0.905514
 H        -0.915610        -1.812347         0.499921
