19
Iteration:  2967charge 0 multiplicity 1
 O        -3.949956        -1.409561         0.970508
 C        -2.699081        -0.641985         1.176439
 C        -1.895082        -0.480143         2.519411
 C        -1.317222         0.700436         1.821450
 C        -2.723215         0.990956         1.165494
 C        -2.078131         1.332147        -0.179852
 C        -0.922423         0.443028         0.357151
 O         0.426703         0.808065        -0.042447
 C        -1.669665        -0.981379         0.129057
 H        -3.755203        -1.513113         0.042486
 H        -2.521917        -0.228169         3.390898
 H        -1.218785        -1.324999         2.813811
 H        -0.798620         1.399013         2.518967
 H        -3.500016         1.362268         1.931088
 H        -2.679670         0.936920        -1.070903
 H        -1.717306         2.416853        -0.351361
 H         0.568683         1.746179         0.189692
 H        -1.971845        -1.120378        -0.959103
 H        -1.128697        -1.888602         0.447157
