19
Iteration:  1030
 O        -3.760397        -1.527519         1.268795
 C        -2.691309        -0.673640         1.176326
 C        -1.876583        -0.586108         2.422193
 C        -1.472119         0.713579         1.798183
 C        -2.863464         0.947479         1.070059
 C        -2.028821         1.662109        -0.080326
 C        -0.956502         0.571197         0.257728
 O         0.420261         0.485414        -0.080937
 C        -1.662948        -0.708282         0.001952
 H        -4.053324        -1.838909         0.388161
 H        -2.440544        -0.466365         3.350633
 H        -1.159111        -1.414055         2.640881
 H        -1.023890         1.537319         2.290959
 H        -3.731775         1.297445         1.608516
 H        -2.470546         1.620410        -1.051043
 H        -1.799338         2.738873         0.095517
 H         0.997957         0.851609         0.636673
 H        -2.165075        -0.798850        -0.994740
 H        -0.841981        -1.459551        -0.049024
