19
Iteration:  3953charge 0 multiplicity 1
 O        -3.892671        -1.467841         0.775713
 C        -2.784380        -0.633391         1.209415
 C        -2.057018        -0.515163         2.619834
 C        -1.306177         0.695556         1.831123
 C        -2.687030         0.921623         1.188742
 C        -2.076162         1.408076        -0.082944
 C        -0.836801         0.527779         0.357527
 O         0.444651         0.800833        -0.186159
 C        -1.570539        -0.870316         0.193782
 H        -4.619895        -1.118522         1.270517
 H        -2.804192        -0.177337         3.438069
 H        -1.579229        -1.445033         2.946592
 H        -0.761095         1.468633         2.496489
 H        -3.486124         1.390419         1.791112
 H        -2.492688         1.077832        -1.005114
 H        -1.808457         2.508290        -0.116124
 H         0.865030        -0.039896        -0.152981
 H        -1.999843        -1.017065        -0.792670
 H        -1.072744        -1.860345         0.537706
