19
Iteration:  2531charge 0 multiplicity 1
 O        -3.827417        -1.512924         1.181949
 C        -2.739453        -0.688385         1.165938
 C        -1.981711        -0.529390         2.446717
 C        -1.509471         0.779394         1.848843
 C        -2.697916         0.954853         1.141878
 C        -1.934523         1.512631        -0.112134
 C        -0.915220         0.497061         0.319326
 O         0.420488         0.604114        -0.106138
 C        -1.648450        -0.819480         0.044817
 H        -4.001454        -1.757561         0.267520
 H        -2.769440        -0.366068         3.198324
 H        -1.250177        -1.263555         2.726587
 H        -1.073872         1.591166         2.431982
 H        -3.562621         1.530338         1.497585
 H        -2.391498         1.396731        -1.076315
 H        -1.647145         2.527211         0.124106
 H         0.575891         1.576512        -0.252586
 H        -2.034865        -0.993501        -0.943458
 H        -0.961775        -1.671830         0.227677
