19
Iteration:  1202charge 0 multiplicity 1
 O        -4.004054        -1.338160         1.229772
 C        -2.753865        -0.667989         1.077882
 C        -1.744038        -0.668610         2.378410
 C        -1.413705         0.665332         1.760209
 C        -2.754051         0.898565         1.093705
 C        -2.084230         1.511421        -0.060341
 C        -0.886301         0.511443         0.296280
 O         0.446185         0.747615         0.045896
 C        -1.639129        -0.843905        -0.058140
 H        -3.762801        -2.293515         1.431737
 H        -2.358561        -0.672704         3.266854
 H        -0.989665        -1.459985         2.344262
 H        -0.909369         1.393610         2.336149
 H        -3.709129         1.304374         1.486171
 H        -2.527114         1.339205        -1.061066
 H        -1.824411         2.575034         0.133852
 H         0.793463         1.519420         0.500688
 H        -2.175716        -0.845581        -1.020950
 H        -1.062129        -1.762442        -0.010950
