19
Iteration:  2564
 O        -3.824328        -1.427122         1.246041
 C        -2.701839        -0.649628         1.151309
 C        -1.686348        -0.590641         2.308449
 C        -1.466963         0.771876         1.804429
 C        -2.887608         0.895560         1.021695
 C        -2.137632         1.575136        -0.192685
 C        -1.009691         0.631762         0.305991
 O         0.439329         0.383872         0.160776
 C        -1.613632        -0.751822         0.015995
 H        -4.192445        -1.427553         0.296651
 H        -2.132539        -0.611182         3.305962
 H        -0.849551        -1.266906         2.276239
 H        -0.913821         1.599203         2.278044
 H        -3.829867         1.471854         1.231634
 H        -2.602989         1.536510        -1.161302
 H        -2.003329         2.613629         0.009955
 H         0.854013         1.188613         0.560349
 H        -1.975383        -0.984917        -0.966709
 H        -0.901980        -1.507787         0.361900
