19
Iteration:  3018charge 0 multiplicity 1
 O        -3.878223        -1.447195         0.982037
 C        -2.663944        -0.725535         1.145861
 C        -2.001928        -0.535624         2.564065
 C        -1.511758         0.894746         2.018968
 C        -2.798840         0.894138         1.128364
 C        -1.983042         1.504291        -0.059891
 C        -0.875205         0.499282         0.398959
 O         0.396163         0.524680        -0.284394
 C        -1.509753        -0.808282         0.147854
 H        -3.785858        -1.975986         0.209039
 H        -2.725249        -0.411276         3.390636
 H        -1.192068        -1.192998         2.862555
 H        -1.185962         1.806376         2.503913
 H        -3.555541         1.572126         1.476397
 H        -2.416789         1.361070        -1.036972
 H        -1.863934         2.526843         0.095691
 H         0.498160         1.435861        -0.549332
 H        -1.840383        -0.838212        -0.887573
 H        -0.837141        -1.691426         0.315320
