19
Iteration:  2060charge 0 multiplicity 1
 O        -3.883131        -1.473696         1.238023
 C        -2.712489        -0.692431         1.189998
 C        -1.843560        -0.476366         2.447829
 C        -1.449747         0.767689         1.751699
 C        -2.813974         0.994877         0.966235
 C        -1.991189         1.446091        -0.292703
 C        -0.969844         0.525492         0.295550
 O         0.427232         0.681435         0.115125
 C        -1.686286        -0.896789         0.036754
 H        -3.534608        -2.419203         1.284532
 H        -2.422981        -0.171275         3.338928
 H        -1.194234        -1.373116         2.550895
 H        -1.020089         1.726455         2.119569
 H        -3.594387         1.732722         1.366102
 H        -2.340634         1.185402        -1.340896
 H        -1.728290         2.500609        -0.127630
 H         0.953784         0.503064         0.899768
 H        -2.012103        -0.778970        -0.976408
 H        -0.965348        -1.732004         0.165963
