19
Iteration:  3250charge 0 multiplicity 1
 O        -3.912680        -1.434481         1.139751
 C        -2.728864        -0.608968         1.181906
 C        -1.962175        -0.638689         2.460295
 C        -1.367774         0.725984         1.763171
 C        -2.775200         0.959842         1.041516
 C        -1.948820         1.445832        -0.204366
 C        -0.902268         0.456802         0.327923
 O         0.461397         0.848320         0.090695
 C        -1.700455        -0.891946         0.101427
 H        -3.906877        -2.151423         0.478649
 H        -2.482779        -0.301336         3.353273
 H        -1.123201        -1.329699         2.658887
 H        -1.034133         1.606711         2.322584
 H        -3.608399         1.505624         1.632080
 H        -2.496231         1.279901        -1.155006
 H        -1.558411         2.447457        -0.194402
 H         0.845085         0.218858        -0.575703
 H        -2.368958        -0.928149        -0.773403
 H        -1.169826        -1.827725         0.186636
