19
Iteration:  3062charge 0 multiplicity 1
 O        -3.841162        -1.605331         1.234431
 C        -2.769926        -0.612682         1.099990
 C        -1.937896        -0.487561         2.375030
 C        -1.366457         0.718433         1.762242
 C        -2.716878         1.062476         1.108847
 C        -2.101907         1.530581        -0.177621
 C        -0.958188         0.531912         0.250562
 O         0.419781         0.615357         0.087443
 C        -1.626301        -0.864772         0.026113
 H        -4.002182        -1.892826         0.351579
 H        -2.626496        -0.245572         3.226167
 H        -1.313242        -1.359572         2.586277
 H        -0.812198         1.463071         2.346590
 H        -3.479658         1.612376         1.734788
 H        -2.453734         1.483387        -1.184387
 H        -1.745821         2.488768         0.074970
 H         0.968453         1.022842         0.738767
 H        -1.943167        -1.107101        -0.983471
 H        -0.874079        -1.653610         0.292536
