19
Iteration:  4538charge 0 multiplicity 1
 O        -3.936023        -1.445884         1.106593
 C        -2.763365        -0.562036         1.133387
 C        -1.938730        -0.552855         2.432890
 C        -1.395689         0.790072         1.818565
 C        -2.775751         0.910482         1.054090
 C        -2.047542         1.444514        -0.139590
 C        -0.906543         0.557371         0.300220
 O         0.571970         0.606244         0.092234
 C        -1.630047        -0.907482         0.140121
 H        -4.342192        -1.380955         0.224103
 H        -2.543292        -0.394900         3.334060
 H        -1.192562        -1.428248         2.540358
 H        -1.103669         1.731496         2.357669
 H        -3.521427         1.473973         1.504286
 H        -2.598146         1.386401        -1.151974
 H        -1.893970         2.524848        -0.040116
 H         0.557288         0.710929        -0.886041
 H        -1.784740        -1.214030        -0.896586
 H        -1.006361        -1.620828         0.641664
