19
Iteration:  2882charge 0 multiplicity 1
 O        -3.745321        -1.579985         1.047094
 C        -2.648237        -0.603541         1.194615
 C        -1.848217        -0.530444         2.568890
 C        -1.426191         0.767588         1.808646
 C        -2.750749         1.069424         1.133342
 C        -2.043872         1.454067        -0.244991
 C        -0.968053         0.576738         0.290638
 O         0.436145         0.521213         0.068505
 C        -1.811996        -0.834133         0.032953
 H        -4.172488        -1.492868         0.115884
 H        -2.547416        -0.170606         3.323209
 H        -1.137605        -1.338594         2.885076
 H        -0.740604         1.564615         2.284811
 H        -3.754974         1.551249         1.523630
 H        -2.474236         1.231708        -1.241337
 H        -2.056780         2.582514        -0.330660
 H         0.727847         1.243342         0.711260
 H        -2.377626        -0.778930        -0.887962
 H        -1.293846        -1.742580         0.035449
