19
Iteration:   198charge 0 multiplicity 1
 O        -3.621245        -1.746460         1.244388
 C        -2.761505        -0.601786         1.113644
 C        -1.851821        -0.455908         2.407381
 C        -1.500948         0.854508         1.809409
 C        -2.837653         1.071687         1.064408
 C        -2.022683         1.667228        -0.133404
 C        -0.962693         0.518572         0.348087
 O         0.378127         0.380638        -0.012276
 C        -1.732559        -0.751175        -0.047540
 H        -4.270183        -1.836442         0.576961
 H        -2.497720        -0.261581         3.242216
 H        -1.016402        -1.100688         2.579519
 H        -0.877931         1.415787         2.478604
 H        -3.695674         1.724876         1.458942
 H        -2.352611         1.495741        -1.121660
 H        -1.847290         2.714798         0.200502
 H         0.907351         0.848956         0.659484
 H        -2.142565        -0.763105        -1.032804
 H        -1.027135        -1.521819         0.174804
