19
Iteration:  4586charge 0 multiplicity 1
 O        -3.852636        -1.388650         1.009759
 C        -2.740416        -0.549437         1.136296
 C        -2.080636        -0.499621         2.536488
 C        -1.369907         0.709184         1.876107
 C        -2.740217         0.926406         1.133139
 C        -2.059277         1.446620        -0.158894
 C        -0.833230         0.402082         0.287482
 O         0.456167         0.713454        -0.046781
 C        -1.584988        -0.925769         0.227413
 H        -3.978496        -1.670202         0.070623
 H        -2.788460        -0.210396         3.337623
 H        -1.521840        -1.323302         2.862948
 H        -0.851802         1.503391         2.404255
 H        -3.579588         1.345922         1.794579
 H        -2.468724         1.394993        -1.166283
 H        -1.824295         2.561041        -0.096578
 H         0.539733         0.543241        -1.020996
 H        -1.906361        -1.029973        -0.878562
 H        -1.118512        -1.903431         0.508413
