19
Iteration:  3299
 O        -3.723777        -1.460724         0.922990
 C        -2.665850        -0.618709         1.221829
 C        -2.009479        -0.507869         2.536994
 C        -1.481019         0.826954         1.977823
 C        -2.770272         0.948485         1.140022
 C        -2.060610         1.478918        -0.129900
 C        -0.991539         0.518772         0.374261
 O         0.427347         0.560806        -0.221975
 C        -1.562407        -0.815516         0.205371
 H        -3.964291        -1.165025         0.038899
 H        -2.826150        -0.287052         3.262998
 H        -1.434258        -1.420716         2.706274
 H        -0.946558         1.640103         2.539722
 H        -3.637087         1.375522         1.599666
 H        -2.439317         1.380996        -1.131556
 H        -1.897820         2.543736         0.156645
 H         0.499016        -0.358190        -0.436774
 H        -1.938120        -1.102535        -0.830013
 H        -0.922784        -1.660331         0.632168
