19
Iteration:  4273
 O        -3.979632        -1.351462         0.960381
 C        -2.787537        -0.558082         1.115414
 C        -1.971890        -0.577910         2.544590
 C        -1.488721         0.721210         1.895028
 C        -2.791222         0.917208         1.105088
 C        -1.979651         1.501651        -0.132969
 C        -0.832974         0.459544         0.467291
 O         0.523723         0.648846        -0.193293
 C        -1.528779        -0.939813         0.224295
 H        -3.786983        -1.976523         0.253413
 H        -2.605042        -0.442715         3.452860
 H        -1.266027        -1.412272         2.744004
 H        -0.999357         1.485270         2.430662
 H        -3.698406         1.274510         1.702121
 H        -2.496538         1.398882        -1.141358
 H        -1.727990         2.489712         0.289234
 H         0.473351         1.504925        -0.685942
 H        -1.850186        -1.014394        -0.901463
 H        -0.930085        -1.831768         0.628618
