19
Iteration:  1885charge 0 multiplicity 1
 O        -3.911475        -1.333867         1.319670
 C        -2.728127        -0.665823         1.110163
 C        -1.848208        -0.630919         2.354315
 C        -1.479678         0.741545         1.821970
 C        -2.803493         0.937472         1.031667
 C        -2.044507         1.455154        -0.189256
 C        -0.924835         0.492892         0.334515
 O         0.453745         0.685204         0.051042
 C        -1.549620        -0.870175        -0.009140
 H        -4.010039        -2.136834         0.840857
 H        -2.460177        -0.772128         3.276307
 H        -1.070293        -1.420077         2.459440
 H        -1.001828         1.514249         2.424319
 H        -3.745921         1.426783         1.286935
 H        -2.361299         1.362876        -1.264789
 H        -1.948374         2.513840        -0.031047
 H         0.564283         1.649819         0.262065
 H        -1.842904        -0.886852        -1.096182
 H        -1.009271        -1.873868         0.142570
