19
Iteration:   906
 O        -3.785127        -1.696386         1.380232
 C        -2.738846        -0.605100         1.115343
 C        -1.896674        -0.533097         2.381513
 C        -1.433835         0.714703         1.744069
 C        -2.822467         1.073373         1.092371
 C        -1.969224         1.620690        -0.160609
 C        -0.963796         0.529196         0.281450
 O         0.449130         0.667028         0.115753
 C        -1.684683        -0.810316        -0.110667
 H        -4.269168        -1.936706         0.572904
 H        -2.810501        -0.282419         2.989621
 H        -1.206174        -1.347439         2.699343
 H        -0.900309         1.473763         2.345543
 H        -3.574553         1.731469         1.637064
 H        -2.241456         1.415741        -1.187806
 H        -1.602385         2.618718        -0.008361
 H         0.790626        -0.089290        -0.438620
 H        -2.243204        -0.705011        -1.080014
 H        -1.199337        -1.765334         0.102193
