19
Iteration:  4159
 O        -3.933337        -1.448768         1.207385
 C        -2.642932        -0.782930         1.103155
 C        -1.926349        -0.599337         2.375171
 C        -1.497525         0.719912         1.827334
 C        -2.832301         0.944927         1.015203
 C        -1.950810         1.599348        -0.077140
 C        -0.884098         0.538584         0.407919
 O         0.503585         0.645257         0.060242
 C        -1.653689        -0.744151        -0.042646
 H        -4.340519        -1.276146         0.303487
 H        -2.653135        -0.542878         3.210232
 H        -1.191755        -1.365816         2.720526
 H        -0.941239         1.485807         2.474967
 H        -3.666181         1.329223         1.621116
 H        -2.371136         1.456330        -1.072140
 H        -1.829541         2.700568         0.213344
 H         0.762387        -0.175095        -0.444985
 H        -2.072966        -0.770132        -1.006639
 H        -0.915810        -1.582443         0.072724
