19
Iteration:  4592
 O        -3.914248        -1.408981         1.013439
 C        -2.741161        -0.585627         1.192063
 C        -2.051989        -0.496917         2.484862
 C        -1.363870         0.713579         1.821517
 C        -2.800613         0.963957         1.127213
 C        -2.050019         1.454720        -0.139499
 C        -0.875681         0.484079         0.317898
 O         0.516977         0.674970        -0.052294
 C        -1.542659        -0.932566         0.217499
 H        -3.948779        -1.616998         0.041002
 H        -2.681287        -0.228672         3.342852
 H        -1.416087        -1.386971         2.911215
 H        -0.897758         1.506150         2.463944
 H        -3.626541         1.310769         1.672639
 H        -2.615389         1.277108        -1.118180
 H        -1.802929         2.498430         0.025482
 H         0.603346         0.506276        -1.041600
 H        -1.785383        -0.961772        -0.815782
 H        -1.108442        -1.852855         0.559918
