19
Iteration:  4750
 O        -3.867726        -1.390435         1.014686
 C        -2.775000        -0.621013         1.194119
 C        -2.020879        -0.557811         2.428173
 C        -1.373529         0.726433         1.776662
 C        -2.703999         1.043525         1.147226
 C        -2.084888         1.458402        -0.137624
 C        -0.928421         0.433113         0.345326
 O         0.464264         0.768965         0.016272
 C        -1.549290        -1.019548         0.211141
 H        -4.139318        -1.550239         0.094121
 H        -2.756620        -0.363284         3.261711
 H        -1.356310        -1.371299         2.692897
 H        -0.738132         1.435599         2.229685
 H        -3.578327         1.636495         1.546918
 H        -2.704558         1.350256        -1.054760
 H        -1.527816         2.468788        -0.235508
 H         0.680843         0.536529        -0.902106
 H        -1.862917        -1.372225        -0.752886
 H        -1.078488        -1.859679         0.726844
