19
Iteration:  4465charge 0 multiplicity 1
 O        -3.906220        -1.496077         1.103692
 C        -2.773124        -0.616232         1.199037
 C        -2.020934        -0.610555         2.539298
 C        -1.384775         0.724926         1.798535
 C        -2.733474         0.959662         1.007394
 C        -2.019426         1.583096        -0.218455
 C        -0.869746         0.547738         0.322417
 O         0.460830         0.636331         0.043703
 C        -1.594312        -0.840258         0.135364
 H        -4.143635        -1.730297         0.225276
 H        -2.554596        -0.224539         3.433671
 H        -1.443672        -1.481349         2.651618
 H        -1.067176         1.610900         2.411362
 H        -3.475115         1.674034         1.470828
 H        -2.332787         1.398412        -1.214400
 H        -1.936480         2.696212        -0.091150
 H         0.882001         0.041479        -0.541125
 H        -1.812873        -1.023308        -0.971352
 H        -0.990959        -1.667707         0.545920
