19
Iteration:  3054charge 0 multiplicity 1
 O        -3.782800        -1.600091         1.211294
 C        -2.794378        -0.649690         1.140296
 C        -2.021813        -0.501488         2.376855
 C        -1.308374         0.718746         1.738948
 C        -2.735712         1.043403         1.054967
 C        -1.992726         1.569485        -0.145629
 C        -0.954682         0.505341         0.329463
 O         0.402929         0.654854        -0.002456
 C        -1.695151        -0.882316         0.076756
 H        -3.794301        -2.122448         0.428997
 H        -2.794437        -0.269536         3.134717
 H        -1.569899        -1.467885         2.718917
 H        -0.802638         1.553296         2.300786
 H        -3.304345         1.669593         1.832100
 H        -2.484881         1.513349        -1.124974
 H        -1.630338         2.580380         0.075380
 H         0.688168         1.209742         0.726009
 H        -1.955345        -1.005937        -1.047343
 H        -0.991710        -1.666343         0.426177
