19
Iteration:   240
 O        -3.857187        -1.459128         1.339488
 C        -2.729620        -0.661503         1.092862
 C        -1.740785        -0.595675         2.370333
 C        -1.379510         0.704662         1.810167
 C        -2.853758         0.935654         1.040099
 C        -2.059281         1.528477        -0.162316
 C        -0.969820         0.603798         0.297639
 O         0.435611         0.589865         0.165656
 C        -1.700259        -0.836724        -0.114601
 H        -4.044281        -1.831127         0.477019
 H        -2.281428        -0.610631         3.316524
 H        -0.893668        -1.327041         2.387877
 H        -0.962255         1.565989         2.234349
 H        -3.742136         1.403332         1.453021
 H        -2.474594         1.459325        -1.237909
 H        -1.890135         2.566665         0.143092
 H         0.656700         1.478559        -0.103399
 H        -2.105324        -0.726799        -1.129908
 H        -1.072412        -1.702998         0.056469
