19
Iteration:  1829charge 0 multiplicity 1
 O        -3.655519        -1.390351         0.641662
 C        -2.689982        -0.604626         1.205829
 C        -1.944204        -0.504466         2.623426
 C        -1.401127         0.808636         2.006683
 C        -2.782098         1.020990         1.289262
 C        -2.102292         1.450585        -0.042016
 C        -0.976045         0.461663         0.372142
 O         0.263082         0.502996        -0.381733
 C        -1.492480        -0.887673         0.317282
 H        -4.419079        -1.573394         1.277617
 H        -2.702960        -0.367393         3.421344
 H        -1.311230        -1.364952         2.848834
 H        -1.083829         1.597511         2.629455
 H        -3.751981         1.287159         1.593462
 H        -2.498507         1.125231        -1.006681
 H        -1.745585         2.454215        -0.023649
 H         0.450614         1.405578        -0.627277
 H        -1.815386        -1.103070        -0.702134
 H        -0.928000        -1.689878         0.811518
