19
Iteration:  4344charge 0 multiplicity 1
 O        -3.932769        -1.549677         1.219343
 C        -2.787717        -0.710328         1.096588
 C        -1.866754        -0.498830         2.405589
 C        -1.493177         0.852169         1.836712
 C        -2.815270         0.881105         0.994722
 C        -1.888782         1.572303        -0.208356
 C        -0.900556         0.532259         0.362105
 O         0.481818         0.534497         0.081562
 C        -1.660938        -0.761343        -0.026040
 H        -4.681052        -1.369931         0.604206
 H        -2.380804        -0.420270         3.385200
 H        -1.017946        -1.213418         2.473636
 H        -1.091279         1.789082         2.388125
 H        -3.644776         1.349232         1.519303
 H        -2.113283         1.451110        -1.253819
 H        -1.588339         2.598053         0.114012
 H         0.974352         0.608852         0.944641
 H        -1.953885        -0.823999        -1.121038
 H        -1.082657        -1.625137         0.269850
