19
Iteration:  3020charge 0 multiplicity 1
 O        -3.877518        -1.462295         0.994979
 C        -2.672926        -0.729137         1.165273
 C        -2.014728        -0.525389         2.574660
 C        -1.511444         0.887780         2.021683
 C        -2.795489         0.906563         1.108126
 C        -1.967643         1.490670        -0.060179
 C        -0.876119         0.495264         0.392779
 O         0.401897         0.536740        -0.285188
 C        -1.525418        -0.812598         0.126499
 H        -3.719718        -1.999040         0.210387
 H        -2.763051        -0.443865         3.388626
 H        -1.181600        -1.200343         2.836132
 H        -1.143893         1.800436         2.547918
 H        -3.548679         1.653684         1.508736
 H        -2.391499         1.431896        -1.075209
 H        -1.847202         2.552651         0.126219
 H         0.521944         1.485315        -0.488622
 H        -1.879377        -0.840929        -0.965774
 H        -0.823958        -1.681647         0.281232
