19
Iteration:   484charge 0 multiplicity 1
 O        -3.950207        -1.313967         0.916516
 C        -2.700719        -0.683159         1.223917
 C        -1.907428        -0.601230         2.498525
 C        -1.270120         0.718680         1.985071
 C        -2.693957         0.930475         1.180613
 C        -2.054653         1.388297        -0.081165
 C        -0.936366         0.500562         0.305123
 O         0.264432         0.804791        -0.205075
 C        -1.516432        -0.941560         0.219588
 H        -3.580595        -2.137075         0.427771
 H        -2.694293        -0.378092         3.240980
 H        -1.315937        -1.461387         2.817987
 H        -0.754923         1.386401         2.739442
 H        -3.596581         1.544702         1.724761
 H        -2.646129         1.170148        -0.942464
 H        -1.818302         2.484547        -0.132993
 H         0.126761         1.258340        -1.084546
 H        -1.716740        -1.168128        -0.790477
 H        -0.829710        -1.771231         0.309244
