19
Iteration:  2825
 O        -3.993515        -1.255574         1.021399
 C        -2.620643        -0.717244         1.204284
 C        -1.977858        -0.631275         2.578701
 C        -1.597782         0.711414         2.023103
 C        -2.721004         0.846340         1.054825
 C        -1.970584         1.514594        -0.133785
 C        -0.878312         0.559008         0.312038
 O         0.381944         0.655770        -0.283350
 C        -1.380372        -0.908316         0.196041
 H        -4.208213        -1.910110         0.402119
 H        -2.508266        -0.610897         3.562037
 H        -1.105783        -1.308989         2.792642
 H        -1.195638         1.541520         2.604242
 H        -3.742780         1.175678         1.413300
 H        -2.361231         1.516717        -1.211888
 H        -1.778987         2.422752         0.507519
 H         0.229542         1.460616        -0.759673
 H        -1.865611        -0.955978        -0.790012
 H        -0.670409        -1.708737         0.516539
