19
Iteration:  4183charge 0 multiplicity 1
 O        -3.846810        -1.432439         1.147749
 C        -2.702480        -0.571204         1.054478
 C        -1.782524        -0.640746         2.332498
 C        -1.521651         0.750344         1.888210
 C        -2.765763         0.975020         1.000135
 C        -1.984235         1.528069        -0.117072
 C        -0.970795         0.461370         0.360642
 O         0.396255         0.642350         0.200343
 C        -1.635426        -0.870679        -0.075886
 H        -4.615026        -0.903558         1.189537
 H        -2.408860        -0.677550         3.277622
 H        -1.029788        -1.409229         2.376415
 H        -1.075590         1.598002         2.476330
 H        -3.675670         1.359323         1.571457
 H        -2.487038         1.567891        -1.078795
 H        -1.785365         2.635309         0.190262
 H         0.719151        -0.080640        -0.292863
 H        -1.884613        -0.772359        -1.097177
 H        -0.942763        -1.744371         0.180584
