19
Iteration:  1970
 O        -3.828323        -1.544436         0.925104
 C        -2.754878        -0.598021         1.222136
 C        -2.077367        -0.417389         2.587495
 C        -1.516173         0.817929         1.982320
 C        -2.739772         1.012401         1.110966
 C        -1.891694         1.419811        -0.152386
 C        -0.863764         0.414873         0.375797
 O         0.339482         0.743387        -0.355268
 C        -1.496094        -0.890833         0.242802
 H        -3.931436        -2.205874         1.698598
 H        -2.965042        -0.194047         3.208538
 H        -1.522588        -1.247007         2.993936
 H        -1.052191         1.710506         2.347844
 H        -3.651642         1.451335         1.472383
 H        -2.293532         1.160831        -1.145772
 H        -1.547820         2.440015        -0.001622
 H         0.844133        -0.064565        -0.468175
 H        -1.762136        -1.156830        -0.745143
 H        -0.971187        -1.656127         0.750525
