19
Iteration:  3394charge 0 multiplicity 1
 O        -3.882264        -1.460904         1.205836
 C        -2.752570        -0.604148         1.097420
 C        -1.840510        -0.581682         2.390168
 C        -1.473086         0.822950         1.825248
 C        -2.799902         0.952045         1.014096
 C        -2.057422         1.453357        -0.195264
 C        -0.914494         0.519472         0.375740
 O         0.501619         0.638025         0.068322
 C        -1.704279        -0.862645         0.055321
 H        -4.146383        -1.507953         0.232141
 H        -2.426922        -0.503033         3.310878
 H        -0.914399        -1.194883         2.448523
 H        -0.850271         1.579587         2.268625
 H        -3.673984         1.340184         1.430376
 H        -2.504538         1.245691        -1.180924
 H        -1.713290         2.497865        -0.099977
 H         1.115026         0.421993         0.816958
 H        -1.955767        -0.880056        -1.012032
 H        -1.087103        -1.706539         0.325712
