19
Iteration:   569charge 0 multiplicity 1
 O        -3.719104        -1.661843         1.125654
 C        -2.730898        -0.644396         1.128895
 C        -1.888460        -0.528064         2.339264
 C        -1.499090         0.866082         1.835110
 C        -2.783454         1.009349         1.106345
 C        -1.993673         1.556910        -0.095121
 C        -0.951895         0.598725         0.317712
 O         0.463622         0.535143         0.061561
 C        -1.781491        -0.759426         0.023835
 H        -3.699681        -2.049017         1.977930
 H        -2.482766        -0.621798         3.320829
 H        -1.049388        -1.257894         2.473635
 H        -0.899803         1.728599         2.317059
 H        -3.798662         1.472818         1.502221
 H        -2.498437         1.662295        -1.103113
 H        -1.654474         2.536413         0.267851
 H         0.527515         0.164352        -0.833973
 H        -2.396111        -0.558679        -0.998658
 H        -1.159496        -1.726036        -0.115313
