19
Iteration:  2083
 O        -3.896392        -1.472084         1.403397
 C        -2.637702        -0.700279         1.027519
 C        -1.986019        -0.430055         2.358100
 C        -1.545247         0.821111         1.837981
 C        -2.860948         0.873313         0.928763
 C        -1.986703         1.571167        -0.167974
 C        -0.961159         0.598077         0.309322
 O         0.514116         0.554721         0.002635
 C        -1.558371        -0.895479        -0.030111
 H        -3.605661        -2.302743         1.791908
 H        -2.802666        -0.323415         3.102869
 H        -1.185197        -1.199715         2.549181
 H        -1.178729         1.811384         2.110403
 H        -3.852282         1.172205         1.378471
 H        -2.261884         1.665176        -1.256284
 H        -1.645628         2.530506         0.266681
 H         1.039768         0.459385         0.806244
 H        -1.806819        -0.937357        -1.097505
 H        -0.905535        -1.733266         0.359496
