19
Iteration:   303charge 0 multiplicity 1
 O        -3.735367        -1.413482         0.770577
 C        -2.694426        -0.680737         1.250491
 C        -2.071535        -0.512366         2.578235
 C        -1.326439         0.674484         1.953222
 C        -2.673857         0.970467         1.322131
 C        -2.122818         1.455560         0.043632
 C        -0.953149         0.485419         0.352740
 O         0.253990         0.724210        -0.486757
 C        -1.526953        -0.969739         0.328352
 H        -3.881923        -1.026292        -0.060129
 H        -2.793079        -0.236915         3.355693
 H        -1.446521        -1.358668         3.028390
 H        -0.949655         1.500044         2.496346
 H        -3.284792         1.493259         1.894509
 H        -2.511501         1.315455        -1.012035
 H        -1.620504         2.361128        -0.011372
 H         0.707962         1.571877        -0.478501
 H        -1.939241        -1.288681        -0.709158
 H        -0.901937        -1.867202         0.669897
