19
Iteration:  1930charge 0 multiplicity 1
 O        -3.784650        -1.541260         1.172108
 C        -2.695428        -0.614013         1.095603
 C        -1.783848        -0.472720         2.409226
 C        -1.477011         0.885873         1.754774
 C        -2.821579         0.946291         1.061037
 C        -2.152770         1.453908        -0.175769
 C        -0.954844         0.500284         0.247414
 O         0.486132         0.556553         0.145749
 C        -1.679307        -0.834664        -0.023959
 H        -4.599103        -1.076559         1.171937
 H        -2.317177        -0.450220         3.389880
 H        -0.956844        -1.211879         2.648709
 H        -1.034963         1.779153         2.227107
 H        -3.602414         1.568128         1.590427
 H        -2.706970         1.406062        -1.149048
 H        -1.714443         2.439557        -0.035242
 H         0.829267         0.231536         1.019470
 H        -2.145212        -1.132465        -1.031258
 H        -0.945025        -1.665155         0.331178
