19
Iteration:  2678charge 0 multiplicity 1
 O        -3.886369        -1.363184         0.795157
 C        -2.678800        -0.663986         1.197831
 C        -1.877970        -0.530230         2.592316
 C        -1.310225         0.715856         1.890793
 C        -2.720308         0.998067         1.224615
 C        -2.148781         1.459322        -0.092950
 C        -0.947209         0.436855         0.329887
 O         0.361706         0.613565        -0.099865
 C        -1.595986        -0.850065         0.171804
 H        -3.613211        -2.327051         0.617824
 H        -2.503403        -0.209716         3.424914
 H        -1.145565        -1.308853         2.850251
 H        -0.725378         1.505028         2.386191
 H        -3.642634         1.483324         1.644673
 H        -2.680038         1.191986        -1.025280
 H        -2.039000         2.539822        -0.283727
 H         0.456600         1.543135        -0.385509
 H        -2.163342        -0.977930        -0.771148
 H        -0.949384        -1.718625         0.314912
