19
Iteration:  3432
 O        -3.765090        -1.610956         1.015637
 C        -2.744038        -0.667789         1.139738
 C        -2.089293        -0.385672         2.526824
 C        -1.328379         0.785144         1.861404
 C        -2.722541         1.043882         1.132342
 C        -1.996386         1.562441        -0.117523
 C        -0.912444         0.429309         0.410835
 O         0.344703         0.603993        -0.163805
 C        -1.640939        -0.802282         0.126153
 H        -3.934275        -1.965275         0.155621
 H        -2.951464        -0.131829         3.217151
 H        -1.430796        -1.130017         3.068446
 H        -0.822813         1.564099         2.476369
 H        -3.730812         1.472333         1.490790
 H        -2.423319         1.556005        -1.136257
 H        -1.625689         2.584161         0.017021
 H         0.914748        -0.099655         0.072243
 H        -1.810662        -1.177922        -0.922947
 H        -1.001561        -1.622953         0.644453
