19
Iteration:  4246charge 0 multiplicity 1
 O        -3.902354        -1.317150         0.869704
 C        -2.658660        -0.644222         1.148296
 C        -2.045228        -0.577826         2.474479
 C        -1.426995         0.777518         1.953684
 C        -2.765415         0.973596         1.172840
 C        -1.938795         1.491348        -0.103674
 C        -0.930530         0.479319         0.388412
 O         0.350833         0.632916        -0.108591
 C        -1.482027        -0.911847         0.138645
 H        -3.890212        -2.229864         1.180081
 H        -2.777564        -0.268925         3.227800
 H        -1.669570        -1.506040         2.911261
 H        -0.776125         1.429043         2.638742
 H        -3.695657         1.267296         1.670462
 H        -2.469218         1.357124        -1.001219
 H        -1.513091         2.444664         0.239865
 H         0.364961         0.761376        -1.072873
 H        -1.816317        -1.213710        -0.782124
 H        -0.713112        -1.620682         0.403798
