19
Iteration:  1906
 O        -3.910409        -1.361490         1.351880
 C        -2.668316        -0.716586         1.119155
 C        -1.642320        -0.613611         2.283765
 C        -1.496306         0.817966         1.745940
 C        -2.835656         0.854467         0.974384
 C        -2.084936         1.521412        -0.304063
 C        -0.954972         0.530685         0.376267
 O         0.405112         0.628731         0.245485
 C        -1.656725        -0.841449        -0.045164
 H        -4.426548        -1.368754         0.501097
 H        -2.069761        -0.611694         3.309357
 H        -0.836153        -1.355862         2.347989
 H        -0.897094         1.575053         2.207044
 H        -3.709306         1.244758         1.481621
 H        -2.413069         1.191370        -1.316958
 H        -1.848175         2.571388        -0.299747
 H         0.865394         1.033780         1.009219
 H        -2.281147        -0.921134        -0.926939
 H        -0.982465        -1.751301         0.011938
