19
Iteration:  4606
 O        -4.003802        -1.434743         1.036742
 C        -2.776380        -0.716815         1.139592
 C        -1.876875        -0.543673         2.471559
 C        -1.434877         0.819262         1.856319
 C        -2.790424         0.984311         1.097194
 C        -2.062058         1.465264        -0.118219
 C        -0.921808         0.538855         0.368461
 O         0.531167         0.587921        -0.001169
 C        -1.530417        -0.853847         0.166616
 H        -4.172161        -1.589497         0.114959
 H        -2.471350        -0.193496         3.347532
 H        -1.201124        -1.380114         2.718642
 H        -0.892797         1.634913         2.397403
 H        -3.622108         1.683666         1.389197
 H        -2.371452         1.308984        -1.209310
 H        -1.766542         2.606343        -0.166150
 H         0.470596         0.396798        -0.915420
 H        -1.802204        -1.296010        -0.841668
 H        -0.648858        -1.427291         0.501899
