19
Iteration:  1892charge 0 multiplicity 1
 O        -3.908789        -1.310604         1.366160
 C        -2.691370        -0.666124         1.100221
 C        -1.771884        -0.680786         2.380043
 C        -1.472369         0.722321         1.797427
 C        -2.797895         0.905095         0.996653
 C        -2.019468         1.415026        -0.261347
 C        -0.981746         0.571113         0.284572
 O         0.433978         0.662404         0.142587
 C        -1.628524        -0.840071        -0.024300
 H        -4.139476        -1.968045         0.657612
 H        -2.324144        -0.821710         3.300682
 H        -0.906199        -1.322581         2.313582
 H        -1.268023         1.610471         2.397549
 H        -3.702228         1.366487         1.328153
 H        -2.347197         1.354723        -1.286208
 H        -1.861537         2.515223        -0.077375
 H         0.540430         1.510879         0.592550
 H        -1.824860        -0.842443        -1.064900
 H        -0.962756        -1.632501         0.104156
