19
Iteration:  4679
 O        -3.911489        -1.513082         1.216805
 C        -2.764072        -0.679410         1.088509
 C        -1.984975        -0.564044         2.422225
 C        -1.418028         0.736466         1.781029
 C        -2.767035         1.061735         1.012070
 C        -1.956555         1.551508        -0.185828
 C        -0.908182         0.501163         0.342660
 O         0.483939         0.655584         0.085276
 C        -1.616175        -0.868856         0.141157
 H        -4.280378        -1.657653         0.329154
 H        -2.686684        -0.406006         3.245292
 H        -1.290630        -1.421362         2.781646
 H        -0.767896         1.460173         2.364195
 H        -3.548493         1.623824         1.459709
 H        -2.291080         1.503474        -1.220186
 H        -1.848261         2.580673        -0.028072
 H         0.726174         0.500890        -0.836243
 H        -1.964034        -1.092203        -0.867444
 H        -0.978036        -1.716715         0.403165
