19
Iteration:  4078charge 0 multiplicity 1
 O        -4.006569        -1.193673         0.893926
 C        -2.681282        -0.731521         1.125079
 C        -1.949948        -0.656451         2.514416
 C        -1.419885         0.700073         1.907280
 C        -2.813751         0.883976         1.168696
 C        -2.044098         1.439035        -0.024795
 C        -0.839124         0.551416         0.386832
 O         0.431934         0.720468        -0.237582
 C        -1.469043        -0.900285         0.185697
 H        -4.150079        -2.098769         0.608089
 H        -2.537958        -0.186398         3.317073
 H        -1.167069        -1.411531         2.836700
 H        -1.188172         1.480610         2.576374
 H        -3.662608         1.387097         1.651682
 H        -2.622821         1.413354        -1.036028
 H        -1.852997         2.513489         0.115969
 H         1.066356         0.408418         0.395952
 H        -1.798280        -0.977969        -0.931278
 H        -1.039030        -1.863345         0.465624
