19
Iteration:  2510
 O        -3.819843        -1.551877         1.045268
 C        -2.780690        -0.569335         1.146672
 C        -2.117802        -0.536674         2.585106
 C        -1.252661         0.638670         1.991106
 C        -2.779075         1.027008         1.109223
 C        -2.046828         1.490893        -0.167846
 C        -0.907523         0.528268         0.399756
 O         0.437333         0.682006        -0.273053
 C        -1.535370        -0.888595         0.201111
 H        -4.117718        -1.649658         0.073509
 H        -2.697353        -0.106033         3.392162
 H        -1.759894        -1.521086         2.793454
 H        -0.601906         1.399447         2.439178
 H        -3.631067         1.600946         1.560889
 H        -2.624307         1.181875        -1.056429
 H        -1.585474         2.469382        -0.366210
 H         0.497070         1.644360        -0.344705
 H        -1.917726        -0.991566        -0.791832
 H        -1.147168        -1.880308         0.437953
