19
Iteration:  2006
 O        -3.938990        -1.214651         0.929816
 C        -2.620502        -0.690465         1.211150
 C        -2.041262        -0.497729         2.658855
 C        -1.483861         0.789569         1.945088
 C        -2.735848         0.822633         1.106526
 C        -2.033873         1.351998        -0.213207
 C        -0.914634         0.495697         0.279716
 O         0.298817         0.736865        -0.298416
 C        -1.370481        -0.919448         0.378545
 H        -3.824413        -2.125504         0.485731
 H        -2.896038        -0.169612         3.317390
 H        -1.407528        -1.300285         3.179865
 H        -1.016438         1.677485         2.418105
 H        -3.746044         1.167949         1.545329
 H        -2.385301         1.147662        -1.275000
 H        -1.877668         2.423890        -0.291984
 H         0.931350         0.033222        -0.419396
 H        -1.342756        -1.346461        -0.660589
 H        -0.546172        -1.557278         0.863697
