19
Iteration:  3100
 O        -3.861898        -1.338910         1.094838
 C        -2.620321        -0.654355         1.143099
 C        -1.767735        -0.568321         2.399781
 C        -1.537437         0.813339         1.864665
 C        -2.795157         0.804013         1.058151
 C        -2.068053         1.372575        -0.223112
 C        -0.928132         0.606906         0.410924
 O         0.350274         0.525596         0.037869
 C        -1.553813        -0.841377         0.043000
 H        -4.627029        -0.748233         0.907511
 H        -2.116754        -0.504024         3.419785
 H        -0.772090        -1.070504         2.468475
 H        -1.187288         1.629599         2.513960
 H        -3.762472         1.238065         1.294762
 H        -2.305792         1.369285        -1.322465
 H        -2.040217         2.453319         0.185342
 H         0.779263         1.389488         0.336093
 H        -2.269510        -0.870844        -0.859612
 H        -1.013262        -1.760279         0.247621
