19
Iteration:   749
 O        -3.690640        -1.642221         1.056314
 C        -2.679701        -0.657086         1.126967
 C        -1.912598        -0.487687         2.463761
 C        -1.396741         0.772645         1.794199
 C        -2.831624         1.034285         1.084448
 C        -2.074598         1.605553        -0.156040
 C        -0.991467         0.595055         0.363466
 O         0.379084         0.536973        -0.026834
 C        -1.658768        -0.796359         0.082828
 H        -4.492707        -1.201123         1.504722
 H        -2.471790        -0.330084         3.429421
 H        -1.105297        -1.265086         2.714522
 H        -0.817279         1.596827         2.327411
 H        -3.658956         1.468586         1.655458
 H        -2.413434         1.464676        -1.166738
 H        -1.776023         2.644916        -0.003708
 H         0.586055        -0.401719         0.197102
 H        -2.080364        -0.913674        -0.901282
 H        -0.985999        -1.662215         0.320957
