19
Iteration:  2695
 O        -3.936082        -1.386861         0.968116
 C        -2.772022        -0.606992         1.147011
 C        -1.853852        -0.546115         2.423302
 C        -1.317305         0.756128         1.731742
 C        -2.770202         0.891143         1.209438
 C        -2.104541         1.441762        -0.086002
 C        -0.932805         0.522570         0.348658
 O         0.406763         0.657722        -0.019907
 C        -1.609660        -0.898809         0.081121
 H        -3.772209        -2.365044         1.122866
 H        -2.448136        -0.205190         3.297419
 H        -1.210671        -1.411506         2.704592
 H        -0.839127         1.541143         2.396066
 H        -3.538206         1.425416         1.849625
 H        -2.525674         1.363933        -1.108086
 H        -1.655437         2.404469         0.212732
 H         0.719974         1.553290         0.196471
 H        -1.774882        -1.195535        -0.958500
 H        -0.920588        -1.641882         0.515078
