19
Iteration:  3622charge 0 multiplicity 1
 O        -3.977873        -1.300356         0.968857
 C        -2.734633        -0.604939         1.206040
 C        -1.941789        -0.613707         2.558769
 C        -1.461304         0.784818         1.873426
 C        -2.720445         0.975025         1.103639
 C        -1.998191         1.356678        -0.218808
 C        -0.909976         0.475948         0.322803
 O         0.440922         0.746325        -0.026206
 C        -1.556682        -0.989086         0.169953
 H        -3.882755        -2.213943         0.564389
 H        -2.422506        -0.250069         3.460770
 H        -1.247243        -1.426303         2.712887
 H        -0.868955         1.490130         2.540229
 H        -3.525529         1.495229         1.624676
 H        -2.515476         1.141431        -1.192108
 H        -1.558772         2.361060        -0.215375
 H         0.509774         1.245546        -0.899998
 H        -1.875710        -1.362368        -0.843179
 H        -0.901876        -1.706470         0.651043
