19
Iteration:  2707
 O        -3.956248        -1.355363         1.118920
 C        -2.703739        -0.699945         1.094904
 C        -1.879530        -0.631029         2.407905
 C        -1.426135         0.711387         1.842898
 C        -2.773016         0.953823         1.079075
 C        -2.091537         1.574940        -0.122927
 C        -0.912135         0.480632         0.301921
 O         0.454233         0.675526        -0.030588
 C        -1.559073        -0.906941         0.075088
 H        -3.762931        -2.283934         1.388526
 H        -2.433092        -0.516176         3.345436
 H        -1.124768        -1.434242         2.514352
 H        -0.986268         1.653983         2.337819
 H        -3.717977         1.395803         1.585648
 H        -2.544475         1.519773        -1.119736
 H        -1.884763         2.635865         0.055548
 H         0.743027         1.437346         0.541707
 H        -1.916268        -1.059609        -0.952410
 H        -0.952225        -1.746911         0.409208
