19
Iteration:   855
 O        -3.749810        -1.543298         1.040276
 C        -2.747521        -0.638427         1.170359
 C        -1.838129        -0.487730         2.546310
 C        -1.463047         0.859725         1.890407
 C        -2.803085         0.978292         1.120567
 C        -1.968907         1.483411        -0.166697
 C        -1.002370         0.518251         0.385911
 O         0.330044         0.591347        -0.125714
 C        -1.656641        -0.817319         0.095907
 H        -4.034620        -1.694969         0.078863
 H        -2.402636        -0.384669         3.472089
 H        -1.019440        -1.220035         2.597693
 H        -0.995446         1.662695         2.341265
 H        -3.700210         1.424317         1.673846
 H        -2.394206         1.238824        -1.147812
 H        -1.678390         2.595461        -0.028612
 H         0.814057        -0.215538         0.168388
 H        -1.920435        -0.776019        -0.974783
 H        -0.950843        -1.634139         0.347197
