19
Iteration:   151
 O        -3.950098        -1.328621         1.008276
 C        -2.679460        -0.652850         1.143911
 C        -1.928133        -0.503120         2.582324
 C        -1.351365         0.731219         1.918269
 C        -2.763896         0.901619         1.166762
 C        -2.053511         1.369298        -0.181612
 C        -0.919581         0.488618         0.337589
 O         0.368604         0.776023        -0.260234
 C        -1.517841        -1.018404         0.260563
 H        -3.975992        -1.711567         0.118149
 H        -2.661618        -0.212892         3.341815
 H        -1.180112        -1.285874         2.865735
 H        -0.988114         1.585408         2.493152
 H        -3.664146         1.135826         1.611513
 H        -2.590940         0.930944        -1.109470
 H        -1.791186         2.393558        -0.218779
 H         0.606807         1.703856        -0.133759
 H        -1.734440        -1.217350        -0.799896
 H        -0.903886        -1.755849         0.797956
