19
Iteration:   852charge 0 multiplicity 1
 O        -3.791661        -1.526819         1.014517
 C        -2.728913        -0.640243         1.171789
 C        -1.836942        -0.467845         2.522640
 C        -1.452312         0.858248         1.891823
 C        -2.775510         0.971804         1.132347
 C        -2.012966         1.448687        -0.163505
 C        -0.996596         0.501181         0.388011
 O         0.339968         0.621678        -0.132137
 C        -1.638639        -0.828444         0.145151
 H        -3.991746        -1.710978         0.103753
 H        -2.450682        -0.468556         3.494709
 H        -1.007704        -1.236861         2.606184
 H        -0.912220         1.672718         2.356536
 H        -3.659764         1.483931         1.614991
 H        -2.462312         1.256212        -1.153398
 H        -1.689609         2.512614        -0.030719
 H         0.846072        -0.162814         0.174319
 H        -1.945155        -0.760560        -0.959381
 H        -0.952946        -1.703467         0.289918
