19
Iteration:  2238charge 0 multiplicity 1
 O        -3.725944        -1.698820         1.174547
 C        -2.707209        -0.643683         1.158432
 C        -1.867744        -0.345950         2.472529
 C        -1.399176         0.922122         1.761175
 C        -2.739680         1.067996         1.044437
 C        -2.047840         1.510757        -0.198690
 C        -1.022911         0.498133         0.223945
 O         0.410393         0.483796         0.148475
 C        -1.746944        -0.812854        -0.013123
 H        -3.712119        -2.173095         0.294457
 H        -2.691604         0.005597         3.160274
 H        -1.249610        -1.096867         3.062998
 H        -0.936159         1.660874         2.281175
 H        -3.537101         1.539427         1.474873
 H        -2.685939         1.385738        -1.118573
 H        -1.926118         2.628540        -0.144352
 H         0.770269         0.086615         0.995577
 H        -2.193183        -0.696613        -1.040752
 H        -1.157531        -1.747059         0.157718
