19
Iteration:  3262charge 0 multiplicity 1
 O        -3.962969        -1.457845         1.115374
 C        -2.760488        -0.713321         1.174682
 C        -1.926178        -0.546198         2.485958
 C        -1.453570         0.767395         1.856260
 C        -2.744940         0.954080         1.105993
 C        -1.961971         1.521899        -0.187977
 C        -0.917068         0.531546         0.267918
 O         0.434681         0.734035        -0.014015
 C        -1.594914        -0.868086         0.143608
 H        -3.832940        -2.056238         0.322868
 H        -2.616345        -0.434278         3.317596
 H        -1.290039        -1.435666         2.741132
 H        -0.803143         1.432725         2.367575
 H        -3.662896         1.468206         1.445608
 H        -2.198520         1.424947        -1.249638
 H        -1.744596         2.532401         0.075894
 H         0.881891         0.092616        -0.608675
 H        -1.837663        -1.036978        -0.948488
 H        -0.892038        -1.647425         0.438579
