19
Iteration:    30charge 0 multiplicity 1
 O        -3.565717        -1.830632         1.102255
 C        -2.798254        -0.649810         1.169305
 C        -1.984691        -0.394733         2.533360
 C        -1.447445         0.781804         1.789152
 C        -2.791069         1.174264         1.123703
 C        -1.951122         1.650790        -0.098375
 C        -0.956626         0.522767         0.313328
 O         0.408521         0.534197        -0.127602
 C        -1.786407        -0.795764         0.011955
 H        -4.484933        -1.779952         1.215388
 H        -2.803571        -0.184775         3.344486
 H        -1.471272        -0.979661         3.393558
 H        -0.700802         1.522734         2.280713
 H        -3.643201         1.718272         1.420332
 H        -2.298524         1.604371        -1.256035
 H        -1.714891         2.682938         0.028642
 H         0.813299        -0.110796         0.477576
 H        -2.051253        -0.897828        -1.083075
 H        -1.283743        -1.795671         0.139943
