19
Iteration:  3297charge 0 multiplicity 1
 O        -3.719812        -1.448621         0.938760
 C        -2.665080        -0.628787         1.203789
 C        -2.010780        -0.502463         2.515836
 C        -1.490117         0.836180         1.955192
 C        -2.776226         0.943008         1.149109
 C        -2.067302         1.492478        -0.110856
 C        -0.979389         0.512028         0.374026
 O         0.419700         0.551578        -0.219597
 C        -1.545844        -0.811283         0.233808
 H        -3.957403        -1.177123        -0.004429
 H        -2.836153        -0.312605         3.209351
 H        -1.449886        -1.452857         2.689334
 H        -0.986384         1.613046         2.489396
 H        -3.631352         1.312824         1.599821
 H        -2.411592         1.410683        -1.106882
 H        -1.928761         2.536175         0.148898
 H         0.532471        -0.395619        -0.494305
 H        -1.910078        -1.066928        -0.834586
 H        -0.946504        -1.687384         0.618854
