19
Iteration:  2293charge 0 multiplicity 1
 O        -3.913527        -1.435164         1.202171
 C        -2.678901        -0.692803         1.143935
 C        -2.007225        -0.515481         2.460838
 C        -1.481217         0.829370         1.823484
 C        -2.786502         0.964700         1.047488
 C        -1.985807         1.421218        -0.220226
 C        -0.930978         0.480284         0.360308
 O         0.434816         0.697517        -0.037626
 C        -1.456014        -0.981286         0.150681
 H        -4.468499        -1.292634         0.448859
 H        -2.750389        -0.342159         3.277856
 H        -1.241108        -1.293032         2.707926
 H        -0.963496         1.546463         2.384840
 H        -3.631909         1.283161         1.596314
 H        -2.373440         1.143220        -1.247654
 H        -1.738350         2.522030        -0.154145
 H         0.452796         1.514586        -0.615471
 H        -1.661045        -0.997867        -0.946777
 H        -0.794906        -1.839913         0.400220
