19
Iteration:  3457charge 0 multiplicity 1
 O        -3.847734        -1.423748         1.067432
 C        -2.769983        -0.615458         1.222211
 C        -2.106761        -0.585510         2.567490
 C        -1.563885         0.818917         1.974873
 C        -2.736198         0.917507         1.061668
 C        -1.907685         1.454938        -0.125970
 C        -0.870813         0.514522         0.322767
 O         0.435013         0.685121        -0.284680
 C        -1.492184        -0.838188         0.209024
 H        -3.875760        -1.790361         0.154035
 H        -2.812899        -0.392488         3.336954
 H        -1.294700        -1.251899         2.855268
 H        -1.184037         1.548546         2.619199
 H        -3.725942         1.320120         1.292982
 H        -2.364078         1.375422        -1.165110
 H        -1.572082         2.472774        -0.020265
 H         0.669612        -0.229824        -0.443308
 H        -1.837133        -1.115023        -0.775953
 H        -0.780556        -1.593060         0.510919
