19
Iteration:  2456
 O        -3.902965        -1.309032         1.049359
 C        -2.645398        -0.674473         1.120422
 C        -1.823232        -0.532401         2.478320
 C        -1.498235         0.802697         1.876224
 C        -2.794226         0.825479         1.057444
 C        -2.126466         1.450749        -0.153261
 C        -0.903773         0.553934         0.424765
 O         0.414748         0.528303        -0.092232
 C        -1.526798        -0.881505         0.172250
 H        -4.210709        -1.213456         0.105581
 H        -2.342762        -0.371801         3.420866
 H        -0.986362        -1.215901         2.600996
 H        -1.131734         1.626857         2.487715
 H        -3.692758         1.314800         1.514097
 H        -2.438588         1.163314        -1.171036
 H        -2.141868         2.522248         0.170219
 H         0.766867         1.424238        -0.107549
 H        -1.916266        -0.977531        -0.833684
 H        -1.026731        -1.803558         0.458886
