19
Iteration:   469charge 0 multiplicity 1
 O        -3.861425        -1.379189         0.869010
 C        -2.690992        -0.608066         1.141519
 C        -2.022075        -0.567635         2.589771
 C        -1.310412         0.653394         1.933558
 C        -2.662528         1.000556         1.296572
 C        -2.130979         1.440952        -0.045549
 C        -0.912388         0.431517         0.391740
 O         0.296078         0.778528        -0.347563
 C        -1.484961        -0.969309         0.232412
 H        -3.789429        -1.965747         0.062931
 H        -2.633449        -0.132041         3.442272
 H        -1.436177        -1.450693         2.940979
 H        -0.640137         1.404071         2.402706
 H        -3.510900         1.348060         1.798512
 H        -2.672764         1.161187        -1.002149
 H        -1.784862         2.439490        -0.053722
 H         0.129823         1.603152        -0.805613
 H        -1.882880        -1.222054        -0.823094
 H        -0.912646        -1.631320         0.880014
