19
Iteration:   770
 O        -3.927501        -1.441185         0.998069
 C        -2.729520        -0.626877         1.204320
 C        -1.855573        -0.597140         2.482011
 C        -1.426610         0.791686         1.845096
 C        -2.756029         0.914384         1.103780
 C        -2.026500         1.401638        -0.186227
 C        -0.891772         0.467877         0.307956
 O         0.386697         0.807886        -0.104112
 C        -1.584728        -0.865039         0.140265
 H        -4.344881        -1.528414         1.850907
 H        -2.522774        -0.497180         3.355605
 H        -1.044279        -1.338551         2.708137
 H        -1.009070         1.572243         2.512027
 H        -3.629548         1.470099         1.499283
 H        -2.526870         1.200762        -1.121157
 H        -1.847413         2.489541        -0.072456
 H         1.024792         0.180060         0.238724
 H        -2.003101        -1.019776        -0.836225
 H        -0.947805        -1.709231         0.454916
