19
Iteration:    44
 O        -3.536251        -1.885938         1.174704
 C        -2.742572        -0.682335         1.110531
 C        -2.014602        -0.414966         2.465028
 C        -1.531899         0.877282         1.889442
 C        -2.814437         1.214549         1.064527
 C        -1.902651         1.663152        -0.099896
 C        -0.983953         0.515459         0.344134
 O         0.378339         0.444895        -0.137971
 C        -1.747831        -0.724808         0.006863
 H        -4.481888        -1.634753         1.385796
 H        -2.757200        -0.172331         3.303460
 H        -1.276223        -1.215306         2.593204
 H        -1.046400         1.678691         2.447426
 H        -3.612828         1.766435         1.520771
 H        -2.337008         1.643409        -1.127106
 H        -1.395651         2.603542         0.120616
 H         0.908205        -0.196499         0.355859
 H        -2.274296        -0.694910        -0.954297
 H        -1.088102        -1.598070         0.066774
