19
Iteration:  1864
 O        -3.959426        -1.453167         1.043800
 C        -2.711514        -0.657440         1.096986
 C        -1.976261        -0.501721         2.468807
 C        -1.354050         0.743181         1.859967
 C        -2.754090         0.938635         1.159982
 C        -2.021576         1.465959        -0.068647
 C        -0.918168         0.538497         0.343987
 O         0.439511         0.668239        -0.148215
 C        -1.580812        -0.900679         0.131066
 H        -3.620664        -2.407126         1.095066
 H        -2.717265        -0.232748         3.259632
 H        -1.355555        -1.328621         2.906996
 H        -1.008962         1.579574         2.461607
 H        -3.609150         1.310472         1.741289
 H        -2.508548         1.406400        -1.071225
 H        -1.656414         2.486625         0.000477
 H         0.477634         1.576620        -0.448538
 H        -1.802175        -1.103676        -0.951319
 H        -0.836416        -1.728214         0.438551
