19
Iteration:  3859
 O        -3.693707        -1.648332         1.035303
 C        -2.699980        -0.588841         1.091084
 C        -2.000544        -0.445376         2.438351
 C        -1.481377         0.773448         1.864877
 C        -2.788187         1.095807         1.125803
 C        -1.918439         1.579964        -0.121791
 C        -0.951344         0.514306         0.306354
 O         0.373834         0.512791         0.026980
 C        -1.680837        -0.816787        -0.021692
 H        -4.389057        -1.602132         1.742852
 H        -2.708598        -0.324544         3.259370
 H        -1.291050        -1.244811         2.816956
 H        -0.996932         1.631684         2.283965
 H        -3.544959         1.687638         1.670211
 H        -2.455174         1.553902        -1.116978
 H        -1.382903         2.466247         0.226037
 H         0.845292        -0.278605         0.372167
 H        -2.093332        -0.759021        -1.052866
 H        -1.362429        -1.797949         0.268747
