19
Iteration:  3064
 O        -3.853945        -1.600833         1.237845
 C        -2.757596        -0.606462         1.086445
 C        -1.918725        -0.495852         2.380813
 C        -1.389865         0.724897         1.769150
 C        -2.720842         1.057159         1.126606
 C        -2.118174         1.525584        -0.184606
 C        -0.958942         0.532530         0.236418
 O         0.427709         0.602347         0.098906
 C        -1.602898        -0.854808         0.020982
 H        -4.079000        -1.828121         0.322693
 H        -2.549053        -0.217864         3.258694
 H        -1.212488        -1.335900         2.577473
 H        -0.795972         1.469381         2.367115
 H        -3.587373         1.612455         1.688744
 H        -2.475673         1.471945        -1.200291
 H        -1.769017         2.510868         0.025478
 H         1.000965         0.993048         0.772741
 H        -1.985583        -1.119387        -1.033829
 H        -0.877124        -1.665086         0.280333
