19
Iteration:  2057
 O        -3.870963        -1.471046         1.200582
 C        -2.712490        -0.667694         1.203865
 C        -1.840106        -0.478763         2.464415
 C        -1.441707         0.767498         1.757886
 C        -2.809962         1.004252         0.983972
 C        -2.001433         1.410156        -0.295149
 C        -0.985666         0.529977         0.306758
 O         0.443985         0.696398         0.106556
 C        -1.698646        -0.905609         0.046974
 H        -3.601528        -2.412456         1.217272
 H        -2.381062        -0.220057         3.363766
 H        -1.174703        -1.306201         2.505749
 H        -1.032271         1.730771         2.063986
 H        -3.558876         1.689968         1.408680
 H        -2.356595         1.199825        -1.316811
 H        -1.719297         2.479651        -0.247599
 H         0.924706         0.480830         0.915634
 H        -2.068988        -0.892380        -0.970342
 H        -1.076219        -1.751619         0.196657
