19
Iteration:  1623charge 0 multiplicity 1
 O        -3.940862        -1.277967         1.121598
 C        -2.663922        -0.665986         1.185149
 C        -1.796991        -0.510250         2.486849
 C        -1.422173         0.809694         1.739508
 C        -2.805957         0.855854         0.987935
 C        -2.159810         1.370184        -0.234060
 C        -0.952986         0.447090         0.263443
 O         0.445800         0.749849         0.158485
 C        -1.549072        -0.914179         0.143197
 H        -3.840905        -2.258801         1.305029
 H        -2.506573        -0.359654         3.332087
 H        -1.026097        -1.261251         2.690295
 H        -1.054501         1.695512         2.138016
 H        -3.660702         1.156764         1.499450
 H        -2.564008         1.109964        -1.260852
 H        -1.675082         2.331841        -0.131918
 H         0.578911         0.657003        -0.810399
 H        -2.069137        -1.058417        -0.830465
 H        -0.803527        -1.741422         0.404269
