19
Iteration:  3659charge 0 multiplicity 1
 O        -3.930269        -1.243046         1.015181
 C        -2.639754        -0.680023         1.105113
 C        -1.962938        -0.539976         2.452492
 C        -1.459907         0.781727         1.858879
 C        -2.784935         0.856402         1.094418
 C        -2.036698         1.426811        -0.148310
 C        -0.941141         0.470431         0.340159
 O         0.486170         0.724325         0.008922
 C        -1.508046        -0.928659         0.092217
 H        -3.988518        -1.918218         1.753552
 H        -2.744424        -0.346313         3.266844
 H        -1.400658        -1.470189         2.759030
 H        -1.144501         1.643131         2.498138
 H        -3.651685         1.346541         1.558697
 H        -2.588992         1.252057        -1.104461
 H        -1.823890         2.579148         0.069940
 H         0.614133         0.098284        -0.738744
 H        -1.998616        -1.230044        -0.795117
 H        -0.911849        -1.764151         0.474273
