19
Iteration:  3030
 O        -3.839410        -1.545640         1.061348
 C        -2.732074        -0.651203         1.222703
 C        -2.028971        -0.481783         2.590345
 C        -1.520825         0.768628         1.973344
 C        -2.758644         1.021610         1.061000
 C        -1.922541         1.479182        -0.089136
 C        -0.876376         0.520475         0.337531
 O         0.407770         0.617326        -0.248775
 C        -1.617017        -0.869089         0.058001
 H        -3.593279        -2.157144         0.319527
 H        -2.830177        -0.465300         3.354848
 H        -1.339759        -1.289989         2.851126
 H        -0.997819         1.488343         2.619254
 H        -3.711960         1.437360         1.474616
 H        -2.145515         1.526242        -1.135426
 H        -1.548690         2.406566         0.264349
 H         0.749368         1.545208        -0.139051
 H        -2.078631        -0.873180        -0.963724
 H        -0.874316        -1.705906         0.178578
