19
Iteration:   554
 O        -3.701318        -1.596840         1.229753
 C        -2.735155        -0.580135         1.078557
 C        -1.765603        -0.601602         2.344791
 C        -1.453671         0.766477         1.828535
 C        -2.899460         1.041934         1.040409
 C        -2.053335         1.661412        -0.143463
 C        -0.971881         0.475424         0.328455
 O         0.427632         0.567544         0.178832
 C        -1.788268        -0.743446        -0.099172
 H        -3.501690        -2.222152         1.969456
 H        -2.293309        -0.532309         3.291586
 H        -0.971093        -1.350634         2.301040
 H        -1.049204         1.496817         2.514322
 H        -3.640241         1.587414         1.441021
 H        -2.374135         1.552742        -1.236792
 H        -1.769569         2.708774         0.002536
 H         0.816648        -0.002402        -0.541375
 H        -2.268923        -0.757482        -1.099091
 H        -1.313114        -1.733070        -0.036293
