19
Iteration:  4439
 O        -3.856568        -1.297692         0.961609
 C        -2.652609        -0.689004         1.141321
 C        -2.009518        -0.465369         2.492741
 C        -1.471597         0.808179         1.877264
 C        -2.793133         0.994740         1.121973
 C        -2.060719         1.397521        -0.048746
 C        -0.879531         0.409983         0.464515
 O         0.390887         0.656947        -0.113064
 C        -1.513453        -0.954112         0.161057
 H        -3.973200        -1.666833         0.112689
 H        -2.784092        -0.259927         3.189692
 H        -1.157136        -1.165550         2.627737
 H        -0.980598         1.598983         2.443877
 H        -3.739300         1.338994         1.399197
 H        -2.631405         1.249027        -1.070665
 H        -1.624848         2.384011         0.043549
 H         0.661401         0.001424        -0.737004
 H        -1.559454        -0.895976        -0.962547
 H        -0.946071        -1.830048         0.535255
