19
Iteration:   758charge 0 multiplicity 1
 O        -3.789134        -1.548189         1.024541
 C        -2.734627        -0.679590         1.193126
 C        -1.870163        -0.543999         2.484134
 C        -1.385172         0.776913         1.855489
 C        -2.792321         0.984303         1.072559
 C        -2.069762         1.531857        -0.194758
 C        -0.992316         0.597349         0.345953
 O         0.393930         0.651655        -0.059851
 C        -1.612854        -0.854380         0.110617
 H        -4.519456        -1.365562         1.714475
 H        -2.280723        -0.248049         3.441790
 H        -1.354783        -1.513032         2.588440
 H        -0.888687         1.589483         2.328736
 H        -3.714093         1.506307         1.503771
 H        -2.374751         1.348222        -1.210768
 H        -1.751560         2.625278        -0.090133
 H         0.798089        -0.195148         0.242659
 H        -1.953875        -0.946264        -0.900749
 H        -0.900147        -1.686992         0.207226
