19
Iteration:   681charge 0 multiplicity 1
 O        -3.848866        -1.566591         1.165249
 C        -2.699147        -0.620049         1.133771
 C        -1.892314        -0.499023         2.427133
 C        -1.375244         0.768359         1.806037
 C        -2.805603         0.976120         1.096096
 C        -2.119814         1.513710        -0.169961
 C        -0.920682         0.479204         0.294857
 O         0.437409         0.718545         0.055189
 C        -1.582115        -0.940672         0.069019
 H        -4.663711        -1.037735         1.007572
 H        -2.571802        -0.466217         3.288039
 H        -1.126847        -1.308724         2.560701
 H        -0.756302         1.486948         2.261828
 H        -3.740895         1.402345         1.644071
 H        -2.529235         1.362752        -1.148559
 H        -1.820286         2.600077        -0.022280
 H         0.660870         0.768426        -0.875015
 H        -1.925718        -1.117987        -0.965790
 H        -0.950404        -1.738978         0.519679
