19
Iteration:  3981charge 0 multiplicity 1
 O        -3.744766        -1.533765         0.898218
 C        -2.723558        -0.608201         1.139882
 C        -1.958085        -0.572453         2.508982
 C        -1.479852         0.799979         1.897959
 C        -2.755410         1.055750         1.121221
 C        -1.970349         1.555660        -0.034855
 C        -0.944114         0.520699         0.330434
 O         0.336651         0.608039        -0.077747
 C        -1.588443        -0.884029         0.137205
 H        -4.503184        -1.075609         1.274563
 H        -2.665362        -0.578341         3.345525
 H        -1.160671        -1.372909         2.490145
 H        -0.935977         1.517491         2.469694
 H        -3.627227         1.461164         1.633638
 H        -2.377948         1.502142        -1.105332
 H        -1.536746         2.549668         0.032603
 H         0.564903        -0.249955        -0.394372
 H        -1.886207        -1.102799        -0.954763
 H        -1.052329        -1.728040         0.538083
