19
Iteration:  3099
 O        -3.858815        -1.340734         1.101115
 C        -2.614784        -0.644429         1.139850
 C        -1.766298        -0.566479         2.394142
 C        -1.540100         0.809514         1.859663
 C        -2.792210         0.800313         1.056433
 C        -2.082408         1.372687        -0.225649
 C        -0.927618         0.606299         0.414792
 O         0.354072         0.525996         0.044257
 C        -1.562621        -0.840354         0.043685
 H        -4.572915        -0.748708         0.872935
 H        -2.127941        -0.527643         3.419439
 H        -0.763208        -1.079375         2.449685
 H        -1.200681         1.657275         2.508076
 H        -3.786601         1.276306         1.322381
 H        -2.279823         1.371977        -1.317998
 H        -2.044411         2.427857         0.174389
 H         0.835642         1.325275         0.355314
 H        -2.302538        -0.856312        -0.873899
 H        -0.998506        -1.755066         0.242090
