19
Iteration:  2286
 O        -3.903420        -1.457122         1.224428
 C        -2.678853        -0.724238         1.085298
 C        -1.954532        -0.472181         2.428587
 C        -1.482240         0.825385         1.853878
 C        -2.751486         0.945631         1.031473
 C        -2.020473         1.415501        -0.227904
 C        -0.957287         0.533530         0.382638
 O         0.396278         0.614155        -0.027032
 C        -1.477479        -0.895074         0.152260
 H        -4.432164        -1.387456         0.437535
 H        -2.625193        -0.505302         3.286674
 H        -1.169947        -1.251990         2.550213
 H        -1.067677         1.731753         2.459274
 H        -3.754185         1.377840         1.433570
 H        -2.250819         1.310614        -1.274418
 H        -1.628273         2.434218        -0.166881
 H         0.761512         1.461096        -0.310613
 H        -1.796105        -1.043072        -0.905664
 H        -0.807388        -1.672398         0.539099
