19
Iteration:  4364
 O        -3.841934        -1.430617         1.200425
 C        -2.649294        -0.692043         1.146651
 C        -1.940075        -0.598312         2.443551
 C        -1.557937         0.744450         1.853891
 C        -2.792640         1.035960         0.915071
 C        -1.882453         1.522809        -0.173202
 C        -0.923616         0.519273         0.402256
 O         0.384997         0.628594        -0.003096
 C        -1.620388        -0.883769         0.062964
 H        -4.400857        -1.451880         0.358940
 H        -2.686189        -0.447511         3.229089
 H        -1.260717        -1.396159         2.812043
 H        -0.895293         1.489446         2.360279
 H        -3.673155         1.558222         1.172297
 H        -2.251934         1.401588        -1.209558
 H        -1.615401         2.499164         0.183117
 H         1.022286         0.572792         0.769312
 H        -2.313007        -0.877076        -0.899346
 H        -0.967922        -1.779289        -0.070360
