19
Iteration:   652
 O        -4.015148        -1.237161         0.998543
 C        -2.618145        -0.700068         1.245043
 C        -1.827412        -0.607555         2.543103
 C        -1.295857         0.710935         1.831754
 C        -2.733317         0.810792         1.140515
 C        -2.149872         1.239449        -0.240822
 C        -0.917883         0.525154         0.319859
 O         0.316818         0.910603         0.007729
 C        -1.493961        -0.983956         0.124195
 H        -4.491818        -0.374498         0.776040
 H        -2.461691        -0.434310         3.395952
 H        -1.138608        -1.424899         2.551638
 H        -0.910017         1.643591         2.323495
 H        -3.527662         1.129464         1.743537
 H        -2.488585         0.886398        -1.235699
 H        -1.980049         2.300659        -0.285329
 H         0.517342         0.860626        -0.960664
 H        -1.891753        -1.104891        -0.837931
 H        -0.769429        -1.671549         0.544140
