19
Iteration:  4948charge 0 multiplicity 1
 O        -3.831107        -1.403914         1.030275
 C        -2.749547        -0.614693         1.104148
 C        -1.956254        -0.596182         2.418652
 C        -1.415460         0.733310         1.818012
 C        -2.777532         0.982182         1.092737
 C        -2.054823         1.548191        -0.113260
 C        -0.947362         0.489515         0.342666
 O         0.442130         0.590687        -0.017857
 C        -1.614169        -0.904331         0.049668
 H        -3.997613        -1.867301         1.876412
 H        -2.704817        -0.258026         3.209303
 H        -1.267986        -1.444957         2.729457
 H        -0.815512         1.421524         2.499453
 H        -3.616273         1.460913         1.540156
 H        -2.321604         1.502733        -1.209785
 H        -1.697842         2.596895         0.023685
 H         0.881313         1.097418         0.735160
 H        -1.915848        -1.029061        -0.971755
 H        -0.892317        -1.609380         0.476771
