19
Iteration:  3274
 O        -3.928345        -1.460206         1.067742
 C        -2.715935        -0.653779         1.094415
 C        -1.950419        -0.504619         2.503361
 C        -1.421237         0.782144         1.914110
 C        -2.805374         0.961222         1.056910
 C        -2.049309         1.555230        -0.087087
 C        -0.966749         0.532468         0.408028
 O         0.432081         0.614402        -0.122929
 C        -1.440393        -0.890156         0.109633
 H        -3.994226        -1.922955         0.248868
 H        -2.608194        -0.226303         3.319706
 H        -1.196796        -1.300747         2.753874
 H        -1.057937         1.605748         2.465547
 H        -3.641597         1.419076         1.530642
 H        -2.489088         1.579546        -1.062680
 H        -1.707547         2.533718         0.184575
 H         0.420643        -0.216114        -0.571670
 H        -1.583883        -1.250207        -0.962530
 H        -0.761737        -1.555981         0.658693
