19
Iteration:  4666charge 0 multiplicity 1
 O        -3.932101        -1.574971         1.246883
 C        -2.805577        -0.683949         1.184753
 C        -1.988959        -0.516673         2.380578
 C        -1.352432         0.738890         1.758119
 C        -2.723342         1.002498         1.044062
 C        -2.011410         1.625116        -0.263816
 C        -0.875906         0.520562         0.325189
 O         0.498571         0.667123         0.205640
 C        -1.627085        -0.907696         0.005805
 H        -4.426694        -1.593977         0.391147
 H        -2.412877         0.028435         3.208847
 H        -1.548409        -1.500910         2.626062
 H        -1.067756         1.609739         2.375915
 H        -3.477148         1.480600         1.614876
 H        -2.448199         1.354095        -1.189003
 H        -1.435005         2.532399        -0.190425
 H         0.562598         0.331017        -0.727497
 H        -2.049081        -0.785636        -1.022783
 H        -0.893032        -1.760295         0.147618
