19
Iteration:  2732
 O        -3.886130        -1.297033         1.281930
 C        -2.635641        -0.741998         1.044966
 C        -1.877467        -0.674306         2.382282
 C        -1.574906         0.768546         1.957457
 C        -2.836604         0.867244         1.025612
 C        -1.952646         1.475816        -0.183020
 C        -0.905120         0.530532         0.402929
 O         0.392833         0.642764        -0.031944
 C        -1.603218        -0.752069        -0.152620
 H        -3.687311        -2.131311         1.842129
 H        -2.451347        -0.712726         3.297047
 H        -1.038505        -1.355519         2.542782
 H        -1.374916         1.722413         2.577370
 H        -3.894959         1.225013         1.237571
 H        -2.046762         1.340800        -1.260870
 H        -1.787681         2.501715         0.143780
 H         0.987164         0.971059         0.697055
 H        -2.023806        -0.686431        -1.168501
 H        -0.918108        -1.570525         0.029975
