19
Iteration:  3053charge 0 multiplicity 1
 O        -3.778569        -1.598753         1.208042
 C        -2.792891        -0.651754         1.138311
 C        -2.029073        -0.508388         2.381614
 C        -1.309084         0.719954         1.742193
 C        -2.739857         1.038822         1.055222
 C        -1.978648         1.577023        -0.143740
 C        -0.954062         0.499446         0.333686
 O         0.402923         0.658580        -0.013862
 C        -1.699311        -0.880429         0.081214
 H        -3.774625        -2.139579         0.439954
 H        -2.799375        -0.245352         3.144851
 H        -1.577019        -1.462338         2.734467
 H        -0.805068         1.556086         2.293968
 H        -3.321954         1.675265         1.815810
 H        -2.478351         1.519629        -1.101649
 H        -1.628903         2.569068         0.049420
 H         0.655762         1.223815         0.710478
 H        -1.966668        -0.990519        -1.024777
 H        -1.009537        -1.687292         0.440226
