19
Iteration:  4454charge 0 multiplicity 1
 O        -3.969864        -1.445027         1.053651
 C        -2.722540        -0.652159         1.090153
 C        -1.974297        -0.533178         2.488713
 C        -1.419073         0.803294         1.905061
 C        -2.756942         0.939796         1.111232
 C        -1.994756         1.494332        -0.169268
 C        -0.928336         0.535361         0.323081
 O         0.450487         0.639952        -0.023575
 C        -1.502949        -0.860209         0.158590
 H        -4.044297        -1.746796         0.120217
 H        -2.720700        -0.189640         3.251235
 H        -1.411380        -1.308854         2.970781
 H        -0.877709         1.591864         2.494970
 H        -3.645061         1.392237         1.649775
 H        -2.305064         1.267412        -1.161089
 H        -1.698603         2.559188        -0.022351
 H         0.542843        -0.103291        -0.622064
 H        -1.920672        -1.162122        -0.856623
 H        -0.774866        -1.622073         0.480763
