19
Iteration:  1415charge 0 multiplicity 1
 O        -3.621110        -1.718669         1.163658
 C        -2.679763        -0.674851         1.147152
 C        -1.972395        -0.398960         2.465767
 C        -1.540448         0.908742         1.794454
 C        -2.827862         1.043801         1.020920
 C        -1.953309         1.589548        -0.117076
 C        -0.992429         0.583123         0.295429
 O         0.416887         0.410807        -0.004243
 C        -1.693799        -0.694265         0.002899
 H        -3.856850        -2.033197         2.029818
 H        -2.704967        -0.029815         3.278291
 H        -1.228054        -1.066289         2.994359
 H        -0.913535         1.728209         2.295283
 H        -3.900213         1.187234         1.170351
 H        -2.467770         1.724901        -1.144931
 H        -1.639295         2.578471         0.346665
 H         0.626440        -0.537337        -0.109639
 H        -2.365127        -0.741913        -0.907712
 H        -1.105653        -1.657377        -0.148694
