19
Iteration:  1393charge 0 multiplicity 1
 O        -3.636998        -1.675991         1.232240
 C        -2.735877        -0.652772         1.115838
 C        -1.824106        -0.441993         2.396879
 C        -1.519885         0.904944         1.699666
 C        -2.838142         1.016389         0.985557
 C        -2.032894         1.673113        -0.199895
 C        -0.986719         0.560793         0.352074
 O         0.403432         0.417194         0.238592
 C        -1.765107        -0.774190        -0.095594
 H        -3.780080        -2.090649         2.127245
 H        -2.437359        -0.278850         3.392290
 H        -0.991153        -1.209520         2.540603
 H        -1.031933         1.706244         2.381291
 H        -3.546940         1.585261         1.644978
 H        -2.175115         1.488385        -1.346938
 H        -1.797774         2.752769         0.098426
 H         0.725565        -0.148632        -0.485444
 H        -2.412714        -0.859433        -1.047685
 H        -1.132651        -1.727215        -0.213742
