19
Iteration:  4357
 O        -3.902384        -1.504002         1.232702
 C        -2.690062        -0.679846         1.123280
 C        -1.892231        -0.570696         2.471649
 C        -1.506687         0.744067         1.807522
 C        -2.826360         1.005049         0.934758
 C        -1.855372         1.563522        -0.204106
 C        -0.934165         0.541444         0.432700
 O         0.399784         0.591640         0.022307
 C        -1.624643        -0.886914         0.022408
 H        -4.343736        -1.213828         0.377339
 H        -2.585372        -0.538640         3.358503
 H        -1.150117        -1.326979         2.725706
 H        -1.178221         1.658004         2.390142
 H        -3.790730         1.562807         1.185399
 H        -2.019850         1.475014        -1.250713
 H        -1.624162         2.659831         0.064757
 H         0.963859         0.599331         0.796444
 H        -2.065823        -0.664648        -0.891499
 H        -0.962703        -1.703536        -0.215462
