19
Iteration:  3714
 O        -3.742094        -1.605406         1.045515
 C        -2.744340        -0.633206         1.131747
 C        -1.943109        -0.497536         2.487849
 C        -1.468653         0.806404         1.848411
 C        -2.825408         1.027451         1.074433
 C        -2.000988         1.616884        -0.148777
 C        -0.933846         0.464039         0.351283
 O         0.475492         0.527011        -0.035021
 C        -1.668398        -0.803181         0.009913
 H        -4.480927        -1.273942         1.563080
 H        -2.538059        -0.250578         3.404320
 H        -1.263784        -1.369474         2.630171
 H        -0.883026         1.506010         2.421993
 H        -3.704405         1.543137         1.456209
 H        -2.451139         1.812908        -1.135047
 H        -1.703575         2.692341         0.182610
 H         0.809945        -0.083916         0.604647
 H        -2.060068        -0.833623        -0.963662
 H        -1.186658        -1.748581         0.271778
