19
Iteration:  3059charge 0 multiplicity 1
 O        -3.815498        -1.604287         1.230167
 C        -2.786484        -0.628580         1.124681
 C        -1.973354        -0.483483         2.370265
 C        -1.331208         0.716769         1.748967
 C        -2.722681         1.064748         1.082216
 C        -2.064204         1.538486        -0.162348
 C        -0.956787         0.526190         0.284223
 O         0.408043         0.632260         0.054539
 C        -1.660563        -0.879643         0.041327
 H        -3.910827        -2.028985         0.322063
 H        -2.716076        -0.295559         3.156048
 H        -1.460276        -1.411091         2.627618
 H        -0.827957         1.472639         2.310043
 H        -3.303207         1.590783         1.765370
 H        -2.470669         1.490616        -1.197647
 H        -1.675614         2.562855         0.133130
 H         0.894538         1.120419         0.761816
 H        -1.905995        -1.068651        -0.961795
 H        -0.915838        -1.621362         0.330857
