19
Iteration:  1636
 O        -3.966392        -1.121687         1.129467
 C        -2.635444        -0.742213         1.142148
 C        -1.863349        -0.514910         2.500852
 C        -1.446202         0.739974         1.780621
 C        -2.775680         0.777438         1.050295
 C        -2.076399         1.299302        -0.232248
 C        -0.903302         0.477319         0.372121
 O         0.393545         0.855688         0.016994
 C        -1.510747        -1.031426         0.142028
 H        -4.071024        -2.075559         1.089177
 H        -2.547979        -0.213353         3.299261
 H        -1.180040        -1.262916         2.905712
 H        -0.974112         1.563969         2.240869
 H        -3.691887         1.209374         1.372569
 H        -2.490083         1.049340        -1.238112
 H        -2.125476         2.389228        -0.178257
 H         0.513863         1.160447        -0.889736
 H        -1.648322        -1.293256        -0.897022
 H        -0.837581        -1.805834         0.561965
