19
Iteration:  3368
 O        -3.989938        -1.275966         1.333346
 C        -2.701847        -0.776929         1.099137
 C        -1.912866        -0.705079         2.399376
 C        -1.487749         0.760208         1.787458
 C        -2.785314         0.900078         0.989658
 C        -2.039717         1.460699        -0.234900
 C        -0.920098         0.538220         0.375070
 O         0.429529         0.736854         0.071845
 C        -1.477281        -0.896169        -0.020993
 H        -4.339710        -1.377050         0.394475
 H        -2.582318        -0.543948         3.229566
 H        -1.010259        -1.240232         2.513003
 H        -1.004572         1.611653         2.366709
 H        -3.684337         1.379208         1.544835
 H        -2.402689         1.386564        -1.323423
 H        -1.621797         2.474085        -0.130802
 H         1.117898         0.600011         0.748297
 H        -1.717809        -0.945392        -1.061165
 H        -0.649032        -1.571643         0.179852
