19
Iteration:  3451
 O        -3.823628        -1.492056         1.064255
 C        -2.765432        -0.580645         1.179643
 C        -2.125534        -0.529050         2.505584
 C        -1.535765         0.812111         1.944086
 C        -2.769676         0.953941         1.062717
 C        -1.941302         1.467935        -0.059283
 C        -0.877069         0.556729         0.347990
 O         0.445605         0.648872        -0.296264
 C        -1.490883        -0.897687         0.225076
 H        -3.743638        -1.817539         0.188608
 H        -2.798336        -0.236769         3.397187
 H        -1.535125        -1.299509         3.101450
 H        -1.047069         1.638857         2.584176
 H        -3.629979         1.470764         1.540877
 H        -2.345822         1.353752        -1.042605
 H        -1.571432         2.533370         0.051536
 H         0.752395        -0.248448        -0.395010
 H        -1.903346        -0.962764        -0.856155
 H        -0.813075        -1.817342         0.341743
