19
Iteration:   567charge 0 multiplicity 1
 O        -3.713693        -1.655501         1.135264
 C        -2.724440        -0.641760         1.140579
 C        -1.878081        -0.533488         2.325730
 C        -1.496668         0.858497         1.837738
 C        -2.793844         1.028300         1.090843
 C        -2.008195         1.559175        -0.094444
 C        -0.948342         0.583316         0.309353
 O         0.468771         0.537700         0.080454
 C        -1.796541        -0.752945         0.004813
 H        -3.576041        -2.042720         2.025365
 H        -2.470333        -0.654252         3.290262
 H        -1.067138        -1.286361         2.403409
 H        -0.959373         1.711321         2.384755
 H        -3.739984         1.416410         1.419896
 H        -2.507722         1.677305        -1.143028
 H        -1.645105         2.502547         0.278824
 H         0.539540         0.139384        -0.786240
 H        -2.426997        -0.537019        -0.979825
 H        -1.221408        -1.739629        -0.043739
