19
Iteration:  1650
 O        -4.080808        -1.161476         1.091562
 C        -2.695728        -0.710241         1.165688
 C        -1.973225        -0.565701         2.535828
 C        -1.349402         0.779445         1.941474
 C        -2.728053         0.875002         1.060137
 C        -2.074134         1.231096        -0.239268
 C        -0.874220         0.468602         0.314777
 O         0.389400         0.926778        -0.128042
 C        -1.345342        -1.099518         0.185441
 H        -4.175382        -2.155201         0.910087
 H        -2.724012        -0.361571         3.294115
 H        -1.222226        -1.318477         2.830333
 H        -0.917678         1.621313         2.628222
 H        -3.692915         1.299780         1.546629
 H        -2.425263         0.819948        -1.151026
 H        -1.684747         2.269577        -0.272768
 H         0.089116         1.501109        -0.848562
 H        -1.740452        -1.285598        -0.793793
 H        -0.715011        -1.846967         0.545418
