19
Iteration:  2246
 O        -3.700298        -1.656885         1.159241
 C        -2.700757        -0.654512         1.165711
 C        -1.885612        -0.373220         2.451078
 C        -1.444338         0.933812         1.771787
 C        -2.771709         1.031560         1.056971
 C        -2.125398         1.534825        -0.229231
 C        -0.941845         0.482129         0.276705
 O         0.458840         0.448229         0.121536
 C        -1.771215        -0.802312         0.021832
 H        -3.793204        -2.108481         0.262427
 H        -2.595012        -0.078905         3.250945
 H        -1.047351        -0.963510         2.821064
 H        -1.001991         1.844377         2.229742
 H        -3.598718         1.602764         1.520858
 H        -2.712866         1.440458        -1.192642
 H        -1.685747         2.555441        -0.085578
 H         0.620253         0.223954         1.073244
 H        -2.302228        -0.850637        -0.920439
 H        -1.075103        -1.646233         0.046108
