19
Iteration:  3905charge 0 multiplicity 1
 O        -3.944186        -1.387051         0.988120
 C        -2.803840        -0.621279         1.122553
 C        -1.867951        -0.622840         2.387101
 C        -1.455640         0.777814         1.859727
 C        -2.757838         0.934832         1.078800
 C        -1.990952         1.467618        -0.147925
 C        -0.908159         0.478228         0.371876
 O         0.427288         0.726467        -0.021864
 C        -1.579082        -0.942505         0.109347
 H        -4.392194        -1.134849         1.855710
 H        -2.316959        -0.573232         3.392655
 H        -1.072535        -1.405590         2.620868
 H        -1.116778         1.757964         2.319801
 H        -3.585093         1.476568         1.550004
 H        -2.380778         1.155348        -1.144332
 H        -1.779275         2.500564         0.056659
 H         1.067404         0.370270         0.682344
 H        -1.741709        -1.120584        -0.999985
 H        -0.807543        -1.599091         0.487373
