19
Iteration:   472
 O        -3.889293        -1.378388         0.868639
 C        -2.686239        -0.607767         1.143265
 C        -2.002781        -0.563000         2.577500
 C        -1.290959         0.662936         1.950485
 C        -2.637368         0.987531         1.280015
 C        -2.132128         1.437944        -0.060374
 C        -0.931120         0.447440         0.383332
 O         0.292902         0.784690        -0.325312
 C        -1.482899        -0.991284         0.226317
 H        -3.724779        -1.966244         0.166476
 H        -2.662087        -0.187193         3.404776
 H        -1.437593        -1.437893         2.926218
 H        -0.593476         1.358827         2.531267
 H        -3.636763         1.435964         1.739396
 H        -2.625022         1.133829        -0.977962
 H        -1.819214         2.483731        -0.023841
 H        -0.006382         1.554205        -0.858748
 H        -1.839661        -1.159021        -0.764314
 H        -0.901503        -1.681973         0.822728
