19
Iteration:   619charge 0 multiplicity 1
 O        -3.871982        -1.348390         0.896572
 C        -2.671432        -0.617439         1.217077
 C        -1.899727        -0.576147         2.513922
 C        -1.353267         0.742178         1.857538
 C        -2.760126         0.941124         1.244637
 C        -2.156317         1.324368        -0.088159
 C        -0.902896         0.431693         0.294581
 O         0.361580         0.876430        -0.157891
 C        -1.508264        -1.002286         0.215820
 H        -4.587025        -0.644919         0.837528
 H        -2.477562        -0.505158         3.409519
 H        -1.280666        -1.450737         2.655953
 H        -0.959268         1.605649         2.400447
 H        -3.499552         1.291671         1.879757
 H        -2.603613         1.016006        -1.047224
 H        -1.850724         2.363892        -0.171545
 H         0.373632         0.721202        -1.107513
 H        -1.697042        -1.423023        -0.714422
 H        -0.974619        -1.819962         0.643506
