19
Iteration:    77
 O        -3.788381        -1.575483         1.084808
 C        -2.701304        -0.634743         1.142082
 C        -1.824211        -0.492186         2.457155
 C        -1.479050         0.794422         1.841227
 C        -2.902289         0.962156         1.027052
 C        -2.037628         1.557027        -0.147927
 C        -0.965170         0.518336         0.352340
 O         0.428733         0.617495        -0.024230
 C        -1.642009        -0.789915         0.033663
 H        -4.016452        -1.745839         2.067027
 H        -2.322814        -0.237839         3.392313
 H        -1.145920        -1.307158         2.721393
 H        -1.025438         1.631468         2.320469
 H        -3.720338         1.486409         1.528903
 H        -2.302177         1.425184        -1.195552
 H        -1.656510         2.560819        -0.003964
 H         0.848280        -0.278103        -0.074716
 H        -2.065810        -1.098568        -0.916724
 H        -0.971788        -1.569774         0.389015
