19
Iteration:   772charge 0 multiplicity 1
 O        -3.944572        -1.419028         0.996174
 C        -2.712353        -0.625219         1.187392
 C        -1.865335        -0.591559         2.475072
 C        -1.434485         0.774269         1.839486
 C        -2.757053         0.913515         1.110882
 C        -2.024611         1.374900        -0.173472
 C        -0.880930         0.462368         0.314527
 O         0.387037         0.833683        -0.115718
 C        -1.586750        -0.869939         0.150280
 H        -4.303498        -1.544032         1.863282
 H        -2.542943        -0.570895         3.401892
 H        -0.996770        -1.275279         2.752937
 H        -0.988503         1.616147         2.522987
 H        -3.582729         1.425646         1.531099
 H        -2.532247         1.185994        -1.126795
 H        -1.835086         2.411689        -0.087887
 H         1.069375         0.232079         0.243503
 H        -1.985897        -1.088792        -0.856688
 H        -0.996914        -1.759929         0.476730
