19
Iteration:  4772charge 0 multiplicity 1
 O        -3.931214        -1.406438         1.170761
 C        -2.704858        -0.613962         1.121399
 C        -1.939548        -0.562348         2.469021
 C        -1.411239         0.753592         1.865037
 C        -2.743474         0.969354         1.032618
 C        -1.930909         1.412499        -0.199618
 C        -0.926875         0.519143         0.346697
 O         0.357356         0.712855         0.101729
 C        -1.556742        -0.945255         0.020431
 H        -4.464129        -1.620479         0.390491
 H        -2.705507        -0.374801         3.277516
 H        -1.232981        -1.314349         2.810857
 H        -0.910979         1.483531         2.450847
 H        -3.610893         1.515717         1.485831
 H        -2.189404         1.210003        -1.253786
 H        -1.702698         2.526102        -0.075140
 H         0.745568         0.517823        -0.773142
 H        -1.946259        -0.853053        -0.977195
 H        -0.989266        -1.868061         0.124020
