19
Iteration:   411charge 0 multiplicity 1
 O        -3.797335        -1.516587         1.246648
 C        -2.707633        -0.651224         1.127689
 C        -1.804865        -0.611857         2.289890
 C        -1.473995         0.788624         1.835189
 C        -2.834947         0.960739         1.148726
 C        -2.073923         1.487674        -0.093111
 C        -0.961948         0.533469         0.304275
 O         0.427400         0.571216        -0.002749
 C        -1.633679        -0.758118        -0.041720
 H        -4.513286        -1.264826         0.685429
 H        -2.355677        -0.536339         3.213907
 H        -1.006787        -1.371846         2.361568
 H        -1.050452         1.634370         2.341570
 H        -3.653680         1.503690         1.550224
 H        -2.306331         1.536022        -1.155593
 H        -1.897832         2.535668         0.305060
 H         0.883666         1.118908         0.685323
 H        -2.062909        -0.869922        -1.055997
 H        -0.975336        -1.643852        -0.008705
