19
Iteration:  2360charge 0 multiplicity 1
 O        -3.813970        -1.359637         1.053370
 C        -2.706793        -0.592082         1.135062
 C        -1.903031        -0.511037         2.448229
 C        -1.507973         0.871773         1.928255
 C        -2.815779         0.878678         1.166401
 C        -2.092663         1.394373        -0.186703
 C        -0.926011         0.517821         0.301179
 O         0.388459         0.604237        -0.108169
 C        -1.494606        -0.878313         0.197618
 H        -4.044803        -1.494003         0.075098
 H        -2.562345        -0.552282         3.348294
 H        -1.029375        -1.246668         2.571255
 H        -0.858513         1.639674         2.469775
 H        -3.817930         1.268164         1.520326
 H        -2.510612         1.218200        -1.227479
 H        -1.904329         2.520172        -0.170369
 H         0.809936        -0.117580         0.389685
 H        -1.892330        -1.136714        -0.847814
 H        -0.772048        -1.661133         0.541290
