19
Iteration:  2773
 O        -3.837300        -1.486061         0.950148
 C        -2.752280        -0.630679         1.185663
 C        -1.868359        -0.614226         2.516563
 C        -1.358845         0.694249         1.770498
 C        -2.718717         1.066193         1.181449
 C        -2.095781         1.610388        -0.168514
 C        -1.066008         0.514671         0.229872
 O         0.432165         0.599411        -0.002282
 C        -1.633532        -0.871431         0.123680
 H        -3.709392        -2.413967         1.179384
 H        -2.455057        -0.328051         3.390899
 H        -1.264286        -1.539292         2.660023
 H        -0.821963         1.597180         2.252394
 H        -3.478266         1.633506         1.903974
 H        -2.680206         1.373849        -1.045804
 H        -1.787410         2.651174        -0.248314
 H         0.599938         1.259534         0.682261
 H        -1.915394        -1.263444        -0.860527
 H        -0.837644        -1.497327         0.510776
