19
Iteration:  2150
 O        -3.784520        -1.355682         0.835627
 C        -2.712749        -0.656487         1.189974
 C        -1.964208        -0.432289         2.648538
 C        -1.331348         0.784890         1.833541
 C        -2.749604         0.962363         1.163949
 C        -2.213064         1.260171        -0.219912
 C        -0.947272         0.387863         0.287581
 O         0.405087         0.867170        -0.157637
 C        -1.543432        -1.028697         0.308257
 H        -4.528501        -0.810930         1.180492
 H        -2.662407        -0.080222         3.440511
 H        -1.375010        -1.358988         2.720273
 H        -0.723766         1.434455         2.371432
 H        -3.585909         1.405613         1.628416
 H        -2.763336         0.899617        -1.101362
 H        -1.871303         2.299515        -0.468476
 H         1.033775         0.344863         0.421425
 H        -1.864763        -1.403274        -0.708698
 H        -0.795919        -1.722289         0.783535
