19
Iteration:  4036charge 0 multiplicity 1
 O        -3.927940        -1.425894         1.060763
 C        -2.787965        -0.630472         1.145446
 C        -1.894260        -0.597836         2.350626
 C        -1.343224         0.700155         1.774090
 C        -2.765605         1.009052         1.087384
 C        -2.054976         1.515266        -0.160439
 C        -0.905345         0.433110         0.378859
 O         0.477735         0.757624         0.125960
 C        -1.706706        -0.845508        -0.028790
 H        -3.826837        -2.071185         1.822516
 H        -2.556212        -0.419840         3.234634
 H        -1.372705        -1.614393         2.532014
 H        -0.819517         1.356035         2.458479
 H        -3.475665         1.489190         1.752180
 H        -2.436411         1.346360        -1.244589
 H        -1.569501         2.500071        -0.073444
 H         1.103609         0.192774         0.665118
 H        -1.986505        -0.811224        -1.133355
 H        -1.116858        -1.751815         0.099958
