19
Iteration:  2037
 O        -3.902384        -1.365274         0.962693
 C        -2.716338        -0.600854         1.196394
 C        -1.811769        -0.442739         2.486306
 C        -1.421968         0.878227         1.841422
 C        -2.780548         0.960002         1.109661
 C        -2.139577         1.305625        -0.256598
 C        -0.896669         0.400880         0.278420
 O         0.410474         0.730953         0.005861
 C        -1.643121        -0.968028         0.236357
 H        -3.419975        -2.128062         0.709086
 H        -2.447072        -0.265201         3.371131
 H        -1.048928        -1.234379         2.608038
 H        -0.830688         1.671460         2.351789
 H        -3.739773         1.458281         1.485364
 H        -2.675863         0.812094        -1.128082
 H        -1.931935         2.376334        -0.298417
 H         1.151141         0.400434         0.576663
 H        -1.963874        -0.985309        -0.783561
 H        -1.060691        -1.824984         0.576082
