19
Iteration:  3377
 O        -4.011858        -1.328534         1.299253
 C        -2.701817        -0.761145         1.059710
 C        -1.839720        -0.589385         2.334393
 C        -1.427264         0.825299         1.821464
 C        -2.819869         0.900930         1.042472
 C        -2.008247         1.423575        -0.214321
 C        -0.896004         0.549858         0.353717
 O         0.421271         0.680281         0.082397
 C        -1.488787        -0.855423        -0.016591
 H        -4.572436        -1.560538         0.505725
 H        -2.432316        -0.687126         3.290255
 H        -1.076507        -1.377276         2.538897
 H        -1.287792         1.640958         2.611685
 H        -3.796736         1.409117         1.389177
 H        -2.256082         1.096797        -1.229248
 H        -1.913338         2.522237        -0.048818
 H         0.963386         0.549593         0.876925
 H        -1.900489        -0.823433        -1.063913
 H        -0.849252        -1.798966         0.130709
