19
Iteration:  2085
 O        -3.890412        -1.459195         1.391903
 C        -2.636637        -0.707412         1.026150
 C        -1.986283        -0.432439         2.367188
 C        -1.558080         0.833525         1.836683
 C        -2.876386         0.874424         0.936152
 C        -1.995480         1.576363        -0.161441
 C        -0.948058         0.595540         0.306515
 O         0.522361         0.549417        -0.009963
 C        -1.562279        -0.906533        -0.022498
 H        -3.550374        -2.310124         1.830274
 H        -2.780952        -0.342319         3.139170
 H        -1.230199        -1.262354         2.565796
 H        -1.254315         1.795456         2.118056
 H        -3.793019         1.226909         1.342111
 H        -2.247848         1.629899        -1.209297
 H        -1.667141         2.526233         0.306796
 H         1.044529         0.463790         0.777380
 H        -1.767805        -0.934112        -1.136639
 H        -0.860911        -1.719315         0.360563
