19
Iteration:  4000
 O        -3.805078        -1.476572         1.023181
 C        -2.736538        -0.669341         1.085107
 C        -1.864604        -0.549475         2.375890
 C        -1.454701         0.784155         1.888737
 C        -2.834308         0.921780         1.052179
 C        -1.969458         1.591959        -0.115031
 C        -0.945860         0.520301         0.479244
 O         0.381266         0.546077         0.010777
 C        -1.603588        -0.762704         0.033010
 H        -4.284057        -1.463846         1.889536
 H        -2.603872        -0.406620         3.225745
 H        -1.162991        -1.399623         2.585645
 H        -1.094151         1.639774         2.412605
 H        -3.753103         1.415601         1.412903
 H        -2.236505         1.677476        -1.229006
 H        -1.692566         2.606277         0.268511
 H         0.704874        -0.360386        -0.186548
 H        -2.061474        -0.748170        -0.996304
 H        -0.875888        -1.595821         0.152950
