19
Iteration:  3688charge 0 multiplicity 1
 O        -3.849818        -1.568300         0.966031
 C        -2.782954        -0.626391         1.157193
 C        -1.872772        -0.512908         2.429766
 C        -1.373991         0.781291         1.834886
 C        -2.765371         1.078685         1.103666
 C        -1.951379         1.461654        -0.219420
 C        -0.966318         0.481356         0.402546
 O         0.406790         0.658802         0.070602
 C        -1.681227        -0.809197         0.073869
 H        -3.960252        -1.908612         1.842841
 H        -2.425333        -0.253590         3.329143
 H        -1.315191        -1.427317         2.468078
 H        -0.894400         1.651099         2.477086
 H        -3.487941         1.793610         1.557651
 H        -2.408642         1.392579        -1.197266
 H        -1.692801         2.496014        -0.261301
 H         0.607559        -0.257099         0.006798
 H        -2.180245        -0.938925        -0.923606
 H        -1.176754        -1.728659         0.392301
