19
Iteration:  1994
 O        -3.886136        -1.275886         0.932871
 C        -2.675306        -0.661418         1.240608
 C        -2.124968        -0.476215         2.622772
 C        -1.501389         0.806695         2.049475
 C        -2.726712         0.883697         1.026911
 C        -2.033181         1.365517        -0.149273
 C        -0.844150         0.466916         0.310292
 O         0.374565         0.807085        -0.420237
 C        -1.354556        -1.013933         0.359303
 H        -3.873047        -2.224847         0.829594
 H        -2.962134        -0.175725         3.310559
 H        -1.565460        -1.355075         3.060337
 H        -1.170285         1.661850         2.660553
 H        -3.745355         1.356809         1.237624
 H        -2.558109         1.208584        -1.131292
 H        -1.768327         2.363954         0.153624
 H         0.659371        -0.105264        -0.659505
 H        -1.764857        -1.496820        -0.525777
 H        -0.691544        -1.651512         0.999512
