19
Iteration:  1795charge 0 multiplicity 1
 O        -3.898800        -1.381565         1.016824
 C        -2.705679        -0.689170         1.220416
 C        -1.911039        -0.623109         2.548028
 C        -1.412436         0.727705         1.891900
 C        -2.810971         0.866251         1.165475
 C        -2.095443         1.475139        -0.156398
 C        -0.882800         0.549566         0.332021
 O         0.385553         0.662943        -0.234332
 C        -1.480017        -0.867985         0.190447
 H        -4.433046        -0.895019         0.375486
 H        -2.584157        -0.275097         3.356694
 H        -1.240590        -1.417755         2.869785
 H        -1.021028         1.591620         2.415973
 H        -3.758360         1.197748         1.502531
 H        -2.322480         1.289011        -1.198502
 H        -1.870189         2.526941        -0.176216
 H         0.725399         1.496480         0.104417
 H        -1.643865        -1.094763        -0.844959
 H        -0.810567        -1.671724         0.442364
