19
Iteration:  1865
 O        -3.964431        -1.451598         1.059008
 C        -2.704872        -0.655927         1.087968
 C        -1.975814        -0.504565         2.460022
 C        -1.358507         0.743457         1.859840
 C        -2.761696         0.938302         1.152050
 C        -2.023500         1.463447        -0.068277
 C        -0.914572         0.538933         0.350295
 O         0.444008         0.671077        -0.142186
 C        -1.583186        -0.905079         0.126010
 H        -3.619125        -2.386914         1.082505
 H        -2.707221        -0.229032         3.250011
 H        -1.332361        -1.330964         2.881114
 H        -0.988247         1.590040         2.467118
 H        -3.624054         1.300526         1.760155
 H        -2.522742         1.404916        -1.062160
 H        -1.624647         2.484130        -0.019017
 H         0.491886         1.585579        -0.429202
 H        -1.804622        -1.108809        -0.963465
 H        -0.830685        -1.726405         0.417208
