19
Iteration:  3384charge 0 multiplicity 1
 O        -3.991430        -1.400135         1.264508
 C        -2.701770        -0.635194         1.044308
 C        -1.782323        -0.528385         2.325498
 C        -1.477627         0.801696         1.872444
 C        -2.800341         0.876371         1.030683
 C        -2.005346         1.412351        -0.180983
 C        -0.912307         0.547306         0.382042
 O         0.473334         0.659684         0.056151
 C        -1.579707        -0.853639         0.022252
 H        -4.530840        -1.609175         0.433260
 H        -2.426671        -0.493870         3.241042
 H        -1.091868        -1.416515         2.381487
 H        -1.054201         1.644579         2.438014
 H        -3.711558         1.290299         1.305091
 H        -2.337584         1.122607        -1.165044
 H        -2.003633         2.515656        -0.152284
 H         0.741829         0.472139         1.011120
 H        -1.906562        -0.794215        -1.052808
 H        -1.025108        -1.807592         0.154532
