19
Iteration:  4332
 O        -3.860048        -1.539684         1.181924
 C        -2.760685        -0.581068         1.064862
 C        -1.873746        -0.515354         2.313942
 C        -1.497444         0.817478         1.756675
 C        -2.816598         0.986140         1.065051
 C        -2.030126         1.493007        -0.140516
 C        -0.903516         0.550870         0.313654
 O         0.552909         0.497144         0.130548
 C        -1.648861        -0.831493         0.071318
 H        -4.607568        -1.264917         0.660264
 H        -2.561243        -0.435163         3.173194
 H        -1.107655        -1.305309         2.503864
 H        -0.889813         1.605752         2.312562
 H        -3.665302         1.511180         1.414977
 H        -2.539419         1.562256        -1.111296
 H        -1.898316         2.553262         0.121860
 H         0.901123         0.618530         0.989145
 H        -2.126061        -1.027211        -0.984795
 H        -0.964682        -1.663095         0.255389
