19
Iteration:    54charge 0 multiplicity 1
 O        -3.584541        -1.832574         1.173355
 C        -2.724947        -0.692614         1.158302
 C        -2.034751        -0.457429         2.373026
 C        -1.531767         0.924057         1.873300
 C        -2.755252         1.139795         1.039859
 C        -1.918367         1.654267        -0.126963
 C        -0.950631         0.567820         0.349632
 O         0.317027         0.461320        -0.111486
 C        -1.689718        -0.736680         0.078386
 H        -4.378031        -1.603628         1.650966
 H        -2.500427        -0.630975         3.360521
 H        -1.270468        -1.276567         2.542543
 H        -1.152860         1.782630         2.460526
 H        -3.590124         1.632620         1.425278
 H        -2.205354         1.736100        -1.238938
 H        -1.428235         2.566915         0.128514
 H         0.679167        -0.294934         0.352183
 H        -2.269190        -0.628866        -0.864742
 H        -1.085134        -1.625572        -0.085255
