19
Iteration:  3304charge 0 multiplicity 1
 O        -3.742998        -1.493275         0.901436
 C        -2.682468        -0.594480         1.231448
 C        -2.012266        -0.520475         2.593950
 C        -1.444660         0.806368         2.011288
 C        -2.771331         0.969362         1.125709
 C        -2.047144         1.460717        -0.153184
 C        -0.971517         0.545756         0.362416
 O         0.421251         0.593502        -0.212964
 C        -1.592415        -0.845663         0.155536
 H        -4.074662        -1.153389         0.016082
 H        -2.702749        -0.282471         3.407728
 H        -1.314242        -1.337144         2.881166
 H        -0.951432         1.587904         2.570107
 H        -3.672915         1.527243         1.568385
 H        -2.509430         1.297647        -1.182594
 H        -1.775917         2.498642         0.060377
 H         0.529422        -0.401136        -0.354322
 H        -1.975144        -1.138029        -0.789793
 H        -0.889320        -1.542454         0.550899
