19
Iteration:  2944charge 0 multiplicity 1
 O        -3.916413        -1.443202         1.272190
 C        -2.718639        -0.643036         1.086973
 C        -1.994255        -0.624501         2.484570
 C        -1.430653         0.738015         1.817152
 C        -2.748094         0.940587         1.004773
 C        -1.942672         1.400475        -0.149481
 C        -0.890022         0.483432         0.331242
 O         0.421123         0.785516        -0.071403
 C        -1.578933        -0.860786         0.064840
 H        -4.267645        -1.599134         0.331306
 H        -2.709618        -0.446189         3.316077
 H        -1.434904        -1.545318         2.732867
 H        -1.000817         1.563570         2.389821
 H        -3.712089         1.371049         1.365659
 H        -2.341055         1.320822        -1.204766
 H        -1.660198         2.462754         0.109494
 H         0.902103         1.342717         0.587042
 H        -2.012576        -0.846994        -0.990906
 H        -0.948928        -1.792897         0.146765
