19
Iteration:    64charge 0 multiplicity 1
 O        -3.669151        -1.721710         1.140901
 C        -2.747085        -0.681549         1.141218
 C        -1.896879        -0.525047         2.446105
 C        -1.513312         0.873457         1.846864
 C        -2.801876         1.054903         1.012496
 C        -1.901682         1.657836        -0.175080
 C        -0.970567         0.611666         0.376337
 O         0.332960         0.518830        -0.078709
 C        -1.697536        -0.792201         0.092397
 H        -4.166685        -1.646383         1.928427
 H        -2.629859        -0.513440         3.254824
 H        -1.012307        -1.190558         2.516161
 H        -1.035581         1.668058         2.470929
 H        -3.694310         1.517950         1.281210
 H        -2.249187         1.571918        -1.263786
 H        -1.767987         2.648353         0.145952
 H         0.607093        -0.358332         0.209426
 H        -2.034102        -0.661014        -0.955077
 H        -1.039168        -1.666475         0.200435
