19
Iteration:   955charge 0 multiplicity 1
 O        -4.000587        -1.230385         0.939083
 C        -2.673305        -0.730153         1.160341
 C        -1.814556        -0.524460         2.547187
 C        -1.380108         0.759078         1.829185
 C        -2.758547         0.873615         1.271506
 C        -2.216718         1.305122        -0.089123
 C        -0.954418         0.481203         0.360787
 O         0.407473         0.691078        -0.132914
 C        -1.418981        -0.905813         0.162152
 H        -4.288401        -1.184464         0.007701
 H        -2.371756        -0.259944         3.464605
 H        -1.042565        -1.297044         2.783864
 H        -0.869800         1.623605         2.362028
 H        -3.651367         1.304280         1.648838
 H        -2.745877         0.994666        -1.041397
 H        -1.928204         2.408621        -0.175076
 H         0.418546         1.219823        -0.927353
 H        -1.559615        -1.216003        -0.891858
 H        -0.626245        -1.549832         0.642831
