19
Iteration:  2455charge 0 multiplicity 1
 O        -3.902886        -1.315777         1.055027
 C        -2.651417        -0.676499         1.117117
 C        -1.819993        -0.538014         2.467682
 C        -1.488641         0.809366         1.871056
 C        -2.799316         0.827174         1.064341
 C        -2.119261         1.444523        -0.154096
 C        -0.912162         0.555403         0.425484
 O         0.415844         0.531221        -0.082718
 C        -1.530102        -0.872696         0.168875
 H        -4.229959        -1.237122         0.144628
 H        -2.360159        -0.375664         3.397505
 H        -1.010232        -1.221846         2.610682
 H        -1.153388         1.627777         2.456954
 H        -3.657915         1.330509         1.495458
 H        -2.440382         1.180881        -1.162710
 H        -2.111017         2.507806         0.131999
 H         0.809819         1.403570        -0.120961
 H        -1.928121        -0.953542        -0.817347
 H        -1.025286        -1.789351         0.456053
