19
Iteration:  2323
 O        -3.934109        -1.398887         0.992940
 C        -2.725605        -0.637630         1.216983
 C        -2.061641        -0.472863         2.561650
 C        -1.261588         0.711083         1.838963
 C        -2.683593         0.884222         1.120244
 C        -2.009592         1.270012        -0.244467
 C        -0.922075         0.449481         0.262622
 O         0.388121         0.972353        -0.063252
 C        -1.586595        -1.010179         0.299300
 H        -4.302291        -1.143881         0.101641
 H        -2.685337        -0.070064         3.360678
 H        -1.469167        -1.278786         2.918074
 H        -0.720504         1.398542         2.407613
 H        -3.414291         1.272737         1.758641
 H        -2.468129         0.933143        -1.182441
 H        -1.730617         2.309437        -0.139364
 H         0.612648         0.616728        -0.926361
 H        -1.888926        -1.167216        -0.708208
 H        -0.940892        -1.848854         0.548474
