19
Iteration:  4319
 O        -3.762415        -1.458251         1.127429
 C        -2.711211        -0.631712         1.117418
 C        -1.950374        -0.555214         2.395500
 C        -1.362525         0.756446         1.791074
 C        -2.844231         1.077185         1.059076
 C        -2.160186         1.597683        -0.201048
 C        -0.947250         0.451857         0.319008
 O         0.471749         0.508161         0.131998
 C        -1.606403        -0.883351         0.045076
 H        -4.438328        -1.130689         0.453503
 H        -2.489780        -0.388363         3.321517
 H        -1.270812        -1.454751         2.551362
 H        -0.963289         1.595133         2.364781
 H        -3.654505         1.543850         1.584515
 H        -2.515640         1.185718        -1.199629
 H        -1.688005         2.553565        -0.155345
 H         0.856189         0.781750         1.033993
 H        -1.851755        -0.901087        -1.136819
 H        -1.094326        -1.826018         0.392672
