19
Iteration:  4942charge 0 multiplicity 1
 O        -3.899576        -1.424298         0.995407
 C        -2.710308        -0.658753         1.186193
 C        -1.963149        -0.586371         2.413055
 C        -1.401751         0.764120         1.811464
 C        -2.749692         0.974913         1.132644
 C        -2.057206         1.554410        -0.193111
 C        -0.860502         0.500890         0.326830
 O         0.426091         0.610384        -0.012673
 C        -1.618414        -0.870623         0.074046
 H        -4.085811        -1.993196         1.733146
 H        -2.650263        -0.189017         3.137168
 H        -1.473411        -1.480713         2.773215
 H        -0.896838         1.429119         2.509762
 H        -3.531188         1.405369         1.832420
 H        -2.488119         1.393529        -1.207096
 H        -1.805185         2.594393         0.025014
 H         0.896933         0.903811         0.751641
 H        -1.940882        -1.012822        -0.985140
 H        -0.868893        -1.652512         0.351147
