19
Iteration:  3294charge 0 multiplicity 1
 O        -3.723225        -1.429906         0.961462
 C        -2.667113        -0.638415         1.161497
 C        -2.011895        -0.500939         2.483774
 C        -1.500695         0.841889         1.907380
 C        -2.785419         0.931969         1.158078
 C        -2.077501         1.514261        -0.067152
 C        -0.937320         0.511779         0.370690
 O         0.398253         0.533539        -0.211362
 C        -1.518977        -0.820397         0.274069
 H        -3.949508        -1.257851         0.019375
 H        -2.834962        -0.363257         3.175435
 H        -1.454229        -1.443396         2.721597
 H        -1.030881         1.624208         2.443344
 H        -3.745235         1.277189         1.645437
 H        -2.413028         1.436290        -1.142625
 H        -1.925776         2.566721         0.121339
 H         0.598901        -0.385401        -0.570360
 H        -1.829942        -0.979913        -0.760530
 H        -0.973184        -1.693009         0.559437
