19
Iteration:  1537charge 0 multiplicity 1
 O        -3.777368        -1.620101         1.092418
 C        -2.741898        -0.646919         1.211822
 C        -1.985669        -0.435181         2.511950
 C        -1.449439         0.841651         1.841830
 C        -2.768363         0.998466         1.032657
 C        -2.001223         1.452768        -0.188186
 C        -0.961175         0.524488         0.329275
 O         0.378639         0.698874        -0.168481
 C        -1.554487        -0.923511         0.170839
 H        -4.684901        -1.324609         1.368228
 H        -2.641059        -0.121199         3.333152
 H        -1.238938        -1.188882         2.782626
 H        -0.949724         1.590575         2.354669
 H        -3.583326         1.462924         1.477227
 H        -2.185559         1.312438        -1.297286
 H        -1.701883         2.470146         0.054032
 H         0.998640         0.080255         0.204698
 H        -1.944693        -1.037592        -0.824311
 H        -0.892543        -1.729605         0.506115
