19
Iteration:  3566
 O        -3.817521        -1.538842         1.170247
 C        -2.660082        -0.655434         1.112299
 C        -1.983902        -0.528878         2.463073
 C        -1.546051         0.862351         1.850596
 C        -2.822290         0.964486         0.934408
 C        -2.010409         1.633486        -0.134418
 C        -0.907856         0.551465         0.364452
 O         0.449797         0.433727        -0.097411
 C        -1.562509        -0.854022         0.161349
 H        -4.434933        -1.282723         0.489253
 H        -2.664056        -0.457109         3.304684
 H        -1.267810        -1.294318         2.733938
 H        -0.988648         1.612941         2.378619
 H        -3.631934         1.411701         1.487795
 H        -2.399856         1.625299        -1.176370
 H        -1.685600         2.642507         0.118144
 H         0.965445         0.966766         0.539783
 H        -2.058832        -1.112839        -0.814540
 H        -0.782345        -1.605610         0.422158
