19
Iteration:  4416charge 0 multiplicity 1
 O        -3.903221        -1.326957         0.878874
 C        -2.734006        -0.613985         1.232207
 C        -1.950069        -0.562035         2.606639
 C        -1.406697         0.730830         1.946462
 C        -2.720927         0.971475         1.136431
 C        -1.987017         1.370144        -0.239814
 C        -0.951778         0.529233         0.317573
 O         0.385197         0.736552        -0.096344
 C        -1.575227        -0.924026         0.260519
 H        -3.822772        -1.661408        -0.055296
 H        -2.722063        -0.360825         3.335519
 H        -1.220093        -1.395020         2.692883
 H        -0.931751         1.537177         2.467039
 H        -3.660883         1.299504         1.566566
 H        -2.485274         1.120279        -1.254331
 H        -1.667390         2.409846        -0.230095
 H         0.793620        -0.120754        -0.443624
 H        -1.971144        -1.222054        -0.755253
 H        -0.869555        -1.648079         0.711741
