19
Iteration:  4385
 O        -3.914276        -1.450043         1.091514
 C        -2.749614        -0.523621         1.082195
 C        -2.025785        -0.485022         2.450705
 C        -1.396293         0.744390         1.877874
 C        -2.758420         0.973157         1.167065
 C        -2.002474         1.463136        -0.160885
 C        -0.900276         0.469130         0.318954
 O         0.450313         0.701140        -0.057966
 C        -1.550263        -0.964097         0.102596
 H        -4.059206        -1.737081         0.191861
 H        -2.763604        -0.396611         3.240264
 H        -1.438046        -1.368554         2.800678
 H        -1.048801         1.642637         2.398776
 H        -3.610781         1.367900         1.650668
 H        -2.492514         1.219060        -1.154732
 H        -1.620752         2.450505        -0.012658
 H         0.936700         0.236944         0.596429
 H        -1.678569        -1.181151        -1.059537
 H        -0.955829        -1.849614         0.421675
