19
Iteration:  1506charge 0 multiplicity 1
 O        -3.938836        -1.247445         0.951102
 C        -2.671805        -0.627205         1.260616
 C        -1.887086        -0.536786         2.522571
 C        -1.375338         0.787602         1.808715
 C        -2.705635         0.907626         1.122962
 C        -2.211645         1.133839        -0.290432
 C        -0.946042         0.450654         0.338783
 O         0.324257         0.939584        -0.088510
 C        -1.403108        -1.057232         0.248254
 H        -4.631491        -0.605006         0.937315
 H        -2.388430        -0.301625         3.475928
 H        -1.104515        -1.292571         2.795189
 H        -0.811760         1.538215         2.275314
 H        -3.546383         1.350231         1.585119
 H        -2.588671         0.599317        -1.171960
 H        -1.991072         2.178916        -0.425210
 H         1.018782         0.434014         0.441313
 H        -1.752790        -1.312148        -0.734897
 H        -0.718576        -1.835133         0.547901
