19
Iteration:  2622
 O        -3.928352        -1.497458         1.096265
 C        -2.727180        -0.655076         1.175714
 C        -2.014140        -0.602723         2.496432
 C        -1.396951         0.714180         1.863265
 C        -2.773245         0.936035         1.150490
 C        -1.962830         1.618112        -0.160111
 C        -0.913654         0.477052         0.359053
 O         0.366001         0.707170        -0.248488
 C        -1.478766        -0.961554         0.194129
 H        -4.226295        -1.407586         0.202612
 H        -2.752709        -0.338167         3.236504
 H        -1.411099        -1.455019         2.837269
 H        -1.034783         1.701258         2.305323
 H        -3.428157         1.601190         1.835213
 H        -2.159018         1.594979        -1.234710
 H        -1.645240         2.600754         0.247621
 H         0.819817         1.490598         0.056585
 H        -1.776625        -1.119306        -0.866158
 H        -0.942090        -1.827865         0.536537
