19
Iteration:  4718
 O        -3.907293        -1.352787         0.907115
 C        -2.677746        -0.709805         1.213247
 C        -1.945338        -0.514556         2.555425
 C        -1.405277         0.784236         1.882263
 C        -2.736256         0.926604         1.116684
 C        -2.063702         1.440808        -0.156340
 C        -0.915318         0.580802         0.433351
 O         0.418218         0.582372        -0.067704
 C        -1.564123        -0.905734         0.210363
 H        -4.030352        -1.390451        -0.081014
 H        -2.786681        -0.335931         3.277191
 H        -1.144944        -1.103521         2.959841
 H        -0.876769         1.565754         2.363079
 H        -3.684933         1.443820         1.429512
 H        -2.493897         1.033469        -1.101600
 H        -1.755397         2.582223        -0.087831
 H         0.286536         0.570904        -1.074410
 H        -1.836981        -0.932815        -0.905762
 H        -0.907453        -1.817621         0.413119
