19
Iteration:  1793
 O        -3.897232        -1.377401         1.050770
 C        -2.709718        -0.680870         1.223276
 C        -1.911209        -0.635231         2.533645
 C        -1.415784         0.720412         1.872639
 C        -2.814533         0.847405         1.145974
 C        -2.084949         1.474568        -0.166487
 C        -0.875167         0.545902         0.325552
 O         0.393480         0.681348        -0.206917
 C        -1.495602        -0.880729         0.168509
 H        -4.426305        -0.928732         0.314820
 H        -2.538193        -0.243361         3.331584
 H        -1.266956        -1.422474         2.914919
 H        -0.958337         1.615983         2.398849
 H        -3.768596         1.254924         1.552942
 H        -2.330175         1.290402        -1.196736
 H        -1.874568         2.576392        -0.121065
 H         0.701954         1.519121         0.143306
 H        -1.699533        -1.069071        -0.869822
 H        -0.846673        -1.644633         0.462664
