19
Iteration:  1473charge 0 multiplicity 1
 O        -3.933133        -1.244225         0.895981
 C        -2.679275        -0.673509         1.176902
 C        -1.858535        -0.505918         2.651227
 C        -1.374024         0.761696         1.825063
 C        -2.707493         0.824260         1.108601
 C        -2.163997         1.227804        -0.267753
 C        -0.883379         0.420341         0.376474
 O         0.297540         0.969464        -0.187320
 C        -1.472020        -1.101705         0.290831
 H        -4.595240        -0.554126         1.223281
 H        -2.571226        -0.111006         3.394595
 H        -1.088535        -1.176284         3.136903
 H        -0.945303         1.622557         2.216331
 H        -3.583073         1.209864         1.593309
 H        -2.639765         0.904235        -1.201023
 H        -1.894712         2.261223        -0.363823
 H         0.983306         0.563354         0.362015
 H        -1.714185        -1.368751        -0.731950
 H        -0.870639        -1.864778         0.753826
