19
Iteration:  3794
 O        -3.874721        -1.260416         0.872427
 C        -2.676513        -0.595575         1.127163
 C        -1.977183        -0.547844         2.517200
 C        -1.277140         0.694604         1.852255
 C        -2.713952         0.903474         1.110954
 C        -2.115245         1.350056        -0.190093
 C        -0.908786         0.381659         0.399837
 O         0.314588         0.867098        -0.027381
 C        -1.519662        -1.005930         0.167534
 H        -4.506843        -0.982945         1.517919
 H        -2.733300        -0.164977         3.243976
 H        -1.275194        -1.315050         3.017277
 H        -0.822368         1.424500         2.536839
 H        -3.539392         1.453236         1.619746
 H        -2.698696         0.929244        -1.088375
 H        -1.775462         2.390671        -0.213445
 H         0.751201         0.025854         0.001002
 H        -1.945197        -1.193791        -0.868700
 H        -0.978989        -1.909170         0.555486
