19
Iteration:  1156charge 0 multiplicity 1
 O        -3.839775        -1.394683         0.717763
 C        -2.718442        -0.611789         1.197581
 C        -1.915596        -0.643135         2.574019
 C        -1.333344         0.758492         1.969904
 C        -2.745476         1.004255         1.358143
 C        -2.132205         1.496194         0.009236
 C        -0.970276         0.515289         0.410668
 O         0.297688         0.540316        -0.426875
 C        -1.496779        -0.830100         0.264508
 H        -3.441658        -2.130360         0.133425
 H        -2.521946        -0.394612         3.429690
 H        -1.193522        -1.430812         2.733538
 H        -0.809448         1.556250         2.646705
 H        -3.500872         1.639153         1.925899
 H        -2.863150         1.312887        -0.781063
 H        -1.804536         2.513735         0.108390
 H         0.406744         1.486000        -0.555580
 H        -1.728673        -1.049227        -0.771522
 H        -0.880371        -1.589468         0.725145
