19
Iteration:  3601
 O        -3.847766        -1.425404         0.978039
 C        -2.708855        -0.536618         1.165761
 C        -1.952251        -0.460222         2.479610
 C        -1.327965         0.750060         1.838267
 C        -2.761808         0.986199         1.085949
 C        -2.051882         1.380014        -0.167510
 C        -0.943010         0.411550         0.424210
 O         0.430148         0.617382        -0.003663
 C        -1.634531        -0.885981         0.182620
 H        -3.763593        -1.999469         0.231551
 H        -2.744925        -0.282563         3.252405
 H        -1.308569        -1.325343         2.675395
 H        -0.691249         1.589056         2.363462
 H        -3.600262         1.563123         1.499631
 H        -2.598995         0.970739        -1.081281
 H        -1.826219         2.511179        -0.192831
 H         0.397898         1.487067        -0.400388
 H        -2.172135        -0.972624        -0.778603
 H        -1.192636        -1.836548         0.412816
