19
Iteration:  2558
 O        -3.832132        -1.430247         1.236982
 C        -2.714046        -0.637355         1.137795
 C        -1.659647        -0.583063         2.361036
 C        -1.432609         0.781768         1.796760
 C        -2.929374         0.937996         0.972505
 C        -2.137098         1.579394        -0.159776
 C        -0.987766         0.589149         0.335184
 O         0.402207         0.403847         0.131281
 C        -1.599070        -0.793063         0.022054
 H        -4.160216        -1.528015         0.349871
 H        -2.268120        -0.576028         3.278191
 H        -0.783343        -1.289139         2.401940
 H        -0.848866         1.459923         2.491958
 H        -3.945371         1.385822         1.148119
 H        -2.363520         1.693325        -1.287063
 H        -2.048673         2.661097         0.253610
 H         0.867314         1.253707         0.361442
 H        -1.914567        -1.025642        -1.040086
 H        -0.894927        -1.602631         0.246440
