19
Iteration:  4460
 O        -3.947191        -1.479172         1.081208
 C        -2.744985        -0.625632         1.146097
 C        -2.003760        -0.593346         2.536938
 C        -1.396653         0.779564         1.865953
 C        -2.745440         0.936192         1.051861
 C        -2.014237         1.576442        -0.198005
 C        -0.888005         0.539408         0.301345
 O         0.443415         0.637081         0.017467
 C        -1.545076        -0.847120         0.139387
 H        -4.141963        -1.785531         0.145218
 H        -2.607127        -0.085703         3.292059
 H        -1.370855        -1.510172         2.793781
 H        -0.997843         1.600861         2.454424
 H        -3.450458         1.564022         1.548668
 H        -2.238777         1.205393        -1.268733
 H        -1.864697         2.632752        -0.026184
 H         0.783486        -0.074264        -0.625366
 H        -1.844498        -1.095103        -0.878569
 H        -0.902559        -1.642803         0.543907
