19
Iteration:  2158charge 0 multiplicity 1
 O        -3.841168        -1.309851         0.898300
 C        -2.672258        -0.637455         1.225906
 C        -1.997152        -0.527533         2.602237
 C        -1.333088         0.820356         1.863234
 C        -2.738825         0.881252         1.103968
 C        -2.135673         1.282190        -0.234708
 C        -0.978665         0.468571         0.300952
 O         0.356234         0.846384        -0.168926
 C        -1.449570        -1.039139         0.266801
 H        -4.618446        -0.693572         0.827022
 H        -2.650735        -0.119667         3.397421
 H        -1.338721        -1.275376         3.097947
 H        -0.808373         1.678592         2.419839
 H        -3.664977         1.253975         1.675573
 H        -2.668260         0.781484        -1.086524
 H        -2.037333         2.371635        -0.272533
 H         1.039284         0.225954         0.183115
 H        -1.826156        -1.558288        -0.595389
 H        -0.752990        -1.701548         0.800921
