19
Iteration:  2837charge 0 multiplicity 1
 O        -3.984611        -1.276927         1.132387
 C        -2.708150        -0.729922         1.102212
 C        -1.953865        -0.635780         2.491130
 C        -1.468553         0.763176         1.996023
 C        -2.805859         0.839180         0.998842
 C        -1.970846         1.541914        -0.059321
 C        -0.909228         0.489107         0.314139
 O         0.397638         0.693829        -0.229557
 C        -1.424863        -0.935964         0.227913
 H        -4.050393        -1.916228         0.339524
 H        -2.668890        -0.578524         3.333308
 H        -1.245191        -1.496246         2.575209
 H        -1.069419         1.560741         2.684595
 H        -3.837610         1.285817         1.273690
 H        -2.324604         1.712447        -1.113341
 H        -1.639896         2.580476         0.194147
 H         0.438374         1.551637        -0.735351
 H        -1.482888        -1.301546        -0.794460
 H        -0.587527        -1.531072         0.621345
