19
Iteration:  2676charge 0 multiplicity 1
 O        -3.869640        -1.358623         0.790771
 C        -2.668419        -0.664518         1.202526
 C        -1.890346        -0.548075         2.618725
 C        -1.319888         0.719902         1.895358
 C        -2.704136         1.007702         1.222192
 C        -2.167245         1.476093        -0.108821
 C        -0.934876         0.443776         0.353335
 O         0.361533         0.610040        -0.117571
 C        -1.606398        -0.867128         0.164220
 H        -3.656933        -2.281829         0.567513
 H        -2.496638        -0.252367         3.454941
 H        -1.141840        -1.308347         2.849979
 H        -0.758393         1.540972         2.447328
 H        -3.696566         1.492161         1.604340
 H        -2.678910         1.158190        -1.000151
 H        -2.017123         2.539813        -0.291860
 H         0.427462         1.505760        -0.429714
 H        -2.155449        -1.004980        -0.772453
 H        -0.950417        -1.707736         0.297776
