19
Iteration:  4012charge 0 multiplicity 1
 O        -3.923390        -1.513555         1.058423
 C        -2.673621        -0.671586         1.108430
 C        -1.883925        -0.588358         2.431595
 C        -1.492655         0.788480         1.866991
 C        -2.815554         0.965222         1.030701
 C        -1.990982         1.558266        -0.064230
 C        -0.878983         0.613611         0.274223
 O         0.527281         0.597615         0.077800
 C        -1.704857        -0.773118        -0.033451
 H        -4.110155        -1.674909         2.022354
 H        -2.554612        -0.479262         3.344670
 H        -1.077248        -1.360906         2.695161
 H        -1.077341         1.433880         2.586795
 H        -3.733612         1.400160         1.430534
 H        -2.389757         1.373698        -1.156726
 H        -1.757950         2.625304         0.115629
 H         0.739874        -0.379105         0.113617
 H        -2.053231        -0.778269        -1.128600
 H        -1.109836        -1.692372         0.092332
