19
Iteration:  2267
 O        -3.765677        -1.519378         1.197961
 C        -2.709886        -0.580941         1.183800
 C        -1.822388        -0.520266         2.447287
 C        -1.536245         0.886984         1.782908
 C        -2.906401         0.957092         0.950078
 C        -2.026887         1.522905        -0.213262
 C        -0.977424         0.547734         0.345285
 O         0.444115         0.424578         0.020252
 C        -1.590975        -0.822779         0.113636
 H        -4.118830        -1.717164         0.352064
 H        -2.421591        -0.372273         3.339441
 H        -1.029384        -1.241642         2.546349
 H        -1.085008         1.699246         2.432350
 H        -3.830405         1.409433         1.413638
 H        -2.406592         1.312361        -1.232086
 H        -2.094372         2.599032        -0.117826
 H         1.004156         0.931407         0.655578
 H        -1.820431        -0.836171        -0.941102
 H        -0.960062        -1.647195         0.419822
