19
Iteration:  3690charge 0 multiplicity 1
 O        -3.840240        -1.582433         0.964321
 C        -2.788381        -0.620345         1.158484
 C        -1.868578        -0.497867         2.403345
 C        -1.371974         0.775275         1.832324
 C        -2.766990         1.076495         1.105071
 C        -1.951171         1.460356        -0.196611
 C        -0.948338         0.494310         0.395069
 O         0.404377         0.653394         0.071477
 C        -1.705492        -0.815998         0.083922
 H        -3.994375        -1.890312         1.860470
 H        -2.483854        -0.260712         3.302297
 H        -1.316662        -1.429579         2.453028
 H        -0.942604         1.711686         2.407485
 H        -3.465533         1.789139         1.592071
 H        -2.366298         1.383502        -1.205302
 H        -1.654766         2.556647        -0.265422
 H         0.594177        -0.308152         0.062485
 H        -2.202964        -0.933730        -0.857027
 H        -1.132471        -1.700557         0.365650
