19
Iteration:    72
 O        -3.747417        -1.642291         1.113045
 C        -2.691693        -0.644050         1.125442
 C        -1.833200        -0.499606         2.441383
 C        -1.505422         0.804673         1.865855
 C        -2.878533         0.994750         1.004689
 C        -1.971927         1.605113        -0.158416
 C        -0.992975         0.561295         0.381462
 O         0.396528         0.566104        -0.048885
 C        -1.680046        -0.770488         0.053253
 H        -4.080123        -1.729529         1.996220
 H        -2.358184        -0.309888         3.411516
 H        -1.128124        -1.305197         2.747910
 H        -1.001232         1.675894         2.377334
 H        -3.733418         1.551846         1.422108
 H        -2.252393         1.509881        -1.258401
 H        -1.721690         2.687051        -0.004882
 H         0.829420        -0.286313         0.003378
 H        -2.031570        -1.051880        -0.964441
 H        -1.015225        -1.626678         0.344317
