19
Iteration:  2430
 O        -3.840936        -1.597373         1.257308
 C        -2.742930        -0.610128         1.106599
 C        -1.960164        -0.546443         2.409847
 C        -1.428254         0.742596         1.810655
 C        -2.739841         1.104714         1.092334
 C        -2.020968         1.543758        -0.232809
 C        -0.956485         0.467323         0.312598
 O         0.449266         0.580648         0.099566
 C        -1.600911        -0.829142        -0.023297
 H        -4.332144        -1.595799         0.377733
 H        -2.469782        -0.366080         3.364361
 H        -1.254569        -1.375556         2.499147
 H        -0.710998         1.327938         2.381300
 H        -3.569743         1.611769         1.540896
 H        -2.448780         1.269041        -1.196744
 H        -1.847945         2.602900        -0.214528
 H         0.636187         1.518939         0.222032
 H        -2.005338        -0.948284        -1.036297
 H        -1.084269        -1.740472         0.323763
