19
Iteration:  3369
 O        -3.994005        -1.278333         1.331072
 C        -2.704816        -0.785277         1.095149
 C        -1.908933        -0.697741         2.393593
 C        -1.474358         0.775160         1.789524
 C        -2.793455         0.902875         0.997292
 C        -2.037207         1.455926        -0.233378
 C        -0.914962         0.542097         0.371109
 O         0.426264         0.728418         0.078600
 C        -1.472980        -0.892647        -0.025542
 H        -4.351493        -1.394236         0.421839
 H        -2.559322        -0.566392         3.223098
 H        -1.003349        -1.237381         2.514765
 H        -1.060446         1.599643         2.396566
 H        -3.680268         1.382070         1.530257
 H        -2.385363         1.355340        -1.334828
 H        -1.645057         2.469155        -0.121459
 H         1.105596         0.605040         0.724117
 H        -1.733637        -0.929520        -1.042185
 H        -0.681320        -1.569739         0.162160
