19
Iteration:  2905charge 0 multiplicity 1
 O        -3.802377        -1.622543         1.161314
 C        -2.677490        -0.598778         1.146408
 C        -1.835390        -0.450035         2.363888
 C        -1.462997         0.880463         1.789828
 C        -2.857025         0.948626         1.012444
 C        -2.095600         1.562985        -0.099367
 C        -0.937110         0.550331         0.361814
 O         0.402177         0.405673         0.043233
 C        -1.596373        -0.784529         0.034958
 H        -4.450578        -1.308737         0.538780
 H        -2.413495        -0.457834         3.278294
 H        -0.987001        -1.168285         2.336867
 H        -1.062291         1.840820         2.241758
 H        -3.777038         1.424810         1.512688
 H        -2.545620         1.692245        -1.077522
 H        -1.617129         2.540107         0.066296
 H         0.877274         0.566972         0.860749
 H        -1.863371        -0.878209        -1.002338
 H        -0.964589        -1.587260         0.326727
