19
Iteration:   913charge 0 multiplicity 1
 O        -3.777964        -1.599799         1.328702
 C        -2.747013        -0.639617         1.146876
 C        -1.889529        -0.603078         2.392977
 C        -1.414876         0.716557         1.763028
 C        -2.795901         1.057750         1.044633
 C        -1.961338         1.537635        -0.202643
 C        -0.988414         0.523608         0.263746
 O         0.415008         0.712945         0.132843
 C        -1.718793        -0.789003        -0.011627
 H        -4.142868        -1.801005         0.488112
 H        -2.550944        -0.452821         3.252783
 H        -1.248670        -1.406650         2.703019
 H        -0.719960         1.468773         2.325002
 H        -3.495411         1.614998         1.594277
 H        -2.368216         1.469166        -1.247827
 H        -1.669418         2.573215        -0.054233
 H         0.738788         0.079935        -0.536624
 H        -2.166643        -0.768683        -0.982480
 H        -1.129644        -1.713855        -0.001211
