19
Iteration:   422charge 0 multiplicity 1
 O        -3.822842        -1.514102         1.133284
 C        -2.691217        -0.673592         1.097108
 C        -1.794589        -0.575980         2.441020
 C        -1.474565         0.793092         1.837884
 C        -2.836652         0.928180         1.161326
 C        -2.043888         1.548455        -0.053115
 C        -0.963410         0.560837         0.405105
 O         0.351371         0.556942        -0.157366
 C        -1.581002        -0.809872         0.027575
 H        -4.428470        -1.136064         0.418092
 H        -2.471263        -0.581510         3.278857
 H        -0.959273        -1.289452         2.583264
 H        -1.151356         1.610585         2.439261
 H        -3.625915         1.405066         1.695484
 H        -2.464491         1.274924        -1.031167
 H        -1.722869         2.631945        -0.041997
 H         0.998648         0.953280         0.467435
 H        -1.849934        -0.646300        -1.029036
 H        -0.911117        -1.653355         0.273789
