19
Iteration:  1697charge 0 multiplicity 1
 O        -3.817802        -1.414086         0.882741
 C        -2.641141        -0.641803         1.202982
 C        -1.913481        -0.436901         2.618113
 C        -1.428743         0.846907         1.870893
 C        -2.748468         0.944884         1.149871
 C        -2.107461         1.472673        -0.132878
 C        -0.973498         0.501997         0.310148
 O         0.326506         0.482029        -0.194730
 C        -1.528743        -0.879170         0.206170
 H        -3.585661        -2.367798         0.840221
 H        -2.648970        -0.095667         3.374270
 H        -1.207629        -1.204553         2.997293
 H        -0.863410         1.671365         2.293202
 H        -3.676858         1.268975         1.573399
 H        -2.773689         1.364414        -0.990441
 H        -1.870189         2.517638         0.052195
 H         0.606662         1.332166         0.145349
 H        -1.913956        -1.042325        -0.822374
 H        -0.859447        -1.720043         0.486050
