19
Iteration:   694
 O        -3.750189        -1.679256         1.190125
 C        -2.755109        -0.686898         1.144068
 C        -1.908705        -0.545645         2.439430
 C        -1.405030         0.830569         1.789129
 C        -2.755219         0.996433         1.069037
 C        -1.982597         1.548038        -0.197015
 C        -0.991221         0.589475         0.306803
 O         0.384678         0.584691         0.068666
 C        -1.650628        -0.780771         0.067725
 H        -4.625664        -1.298557         1.038144
 H        -2.451617        -0.143595         3.296416
 H        -1.249055        -1.405224         2.644557
 H        -1.081393         1.718039         2.355196
 H        -3.559009         1.592553         1.566429
 H        -2.375294         1.480994        -1.172949
 H        -1.615668         2.561261         0.010606
 H         0.440659         0.519629        -0.920876
 H        -2.104105        -0.840734        -0.916404
 H        -0.893900        -1.580032         0.210461
