19
Iteration:  4394
 O        -3.988367        -1.458043         0.999399
 C        -2.813819        -0.611277         1.129951
 C        -1.985157        -0.517329         2.488679
 C        -1.349681         0.747437         1.820973
 C        -2.744839         1.045606         1.127290
 C        -2.054735         1.428738        -0.121338
 C        -0.874179         0.513307         0.388163
 O         0.441098         0.710540        -0.072684
 C        -1.457623        -0.952871         0.158585
 H        -4.054331        -1.831003         0.125971
 H        -2.651843        -0.024156         3.180450
 H        -1.436383        -1.441848         2.790658
 H        -0.808496         1.521452         2.330255
 H        -3.446492         1.598256         1.742490
 H        -2.588742         1.146904        -1.104201
 H        -1.898805         2.510590        -0.168381
 H         1.026362         0.078536         0.297653
 H        -1.871653        -1.104968        -0.859547
 H        -0.907129        -1.812369         0.601211
