19
Iteration:  3845
 O        -3.737857        -1.637186         0.993466
 C        -2.822465        -0.609322         1.119535
 C        -1.965828        -0.526596         2.423148
 C        -1.411252         0.842277         1.839305
 C        -2.841661         1.074984         1.032422
 C        -1.902909         1.596801        -0.082307
 C        -0.952906         0.495506         0.425432
 O         0.394675         0.523179        -0.070654
 C        -1.665074        -0.777982         0.154872
 H        -4.297507        -1.629316         1.797249
 H        -2.569238        -0.332313         3.302858
 H        -1.307677        -1.363385         2.491418
 H        -0.858535         1.494440         2.476385
 H        -3.732078         1.596438         1.406517
 H        -2.089552         1.564314        -1.145332
 H        -1.579452         2.665873         0.075327
 H         0.726710        -0.395423         0.059833
 H        -1.962607        -0.927241        -0.846649
 H        -0.846043        -1.481940         0.332937
