19
Iteration:  3955charge 0 multiplicity 1
 O        -3.890601        -1.491831         0.770811
 C        -2.786200        -0.627626         1.208368
 C        -2.059876        -0.529895         2.610291
 C        -1.310277         0.703636         1.853934
 C        -2.698772         0.944393         1.195414
 C        -2.072867         1.417303        -0.084450
 C        -0.858273         0.527854         0.338796
 O         0.468597         0.792037        -0.188792
 C        -1.578332        -0.879795         0.218872
 H        -4.637438        -1.096312         1.247797
 H        -2.752811        -0.076964         3.416572
 H        -1.484343        -1.421111         2.984773
 H        -0.728647         1.419080         2.487614
 H        -3.495102         1.412892         1.805859
 H        -2.524455         1.131518        -1.076065
 H        -1.853322         2.535515        -0.094313
 H         0.899075        -0.061600        -0.205405
 H        -1.972099        -0.931848        -0.819248
 H        -1.069074        -1.862396         0.502653
