19
Iteration:   408charge 0 multiplicity 1
 O        -3.789440        -1.520752         1.276305
 C        -2.722676        -0.650071         1.112262
 C        -1.805746        -0.619902         2.287610
 C        -1.455824         0.777759         1.834926
 C        -2.826626         0.954132         1.116633
 C        -2.084690         1.498800        -0.118620
 C        -0.939496         0.545395         0.291941
 O         0.442007         0.578496         0.036363
 C        -1.662777        -0.770667        -0.062723
 H        -4.526585        -1.270373         0.700598
 H        -2.324123        -0.583291         3.243825
 H        -1.037969        -1.378194         2.312880
 H        -0.904058         1.617332         2.358566
 H        -3.788974         1.526557         1.581906
 H        -2.414239         1.590205        -1.159491
 H        -1.859315         2.555566         0.348598
 H         0.788560         1.166326         0.711116
 H        -2.177620        -0.823066        -1.023458
 H        -0.969925        -1.643442         0.054414
