19
Iteration:  4771charge 0 multiplicity 1
 O        -3.931907        -1.407431         1.167089
 C        -2.696864        -0.610861         1.114186
 C        -1.939731        -0.557606         2.467873
 C        -1.409468         0.750574         1.875524
 C        -2.736779         0.976718         1.031717
 C        -1.931241         1.414952        -0.203778
 C        -0.926990         0.509768         0.344735
 O         0.350300         0.719001         0.101004
 C        -1.563902        -0.951742         0.026373
 H        -4.467138        -1.630629         0.371763
 H        -2.696283        -0.364504         3.293464
 H        -1.233996        -1.329624         2.824965
 H        -0.904164         1.470026         2.466315
 H        -3.629780         1.499495         1.517123
 H        -2.209791         1.214966        -1.243665
 H        -1.688119         2.515187        -0.081281
 H         0.744917         0.509329        -0.788145
 H        -1.919483        -0.880550        -0.982121
 H        -0.983023        -1.848519         0.139204
