19
Iteration:  3590
 O        -3.844475        -1.492802         1.037907
 C        -2.737041        -0.614851         1.135898
 C        -1.963596        -0.463649         2.531982
 C        -1.411234         0.818485         1.856533
 C        -2.762920         0.994325         1.102629
 C        -2.043623         1.417433        -0.166213
 C        -0.907263         0.506640         0.358869
 O         0.401688         0.518369        -0.008987
 C        -1.616019        -0.850849         0.074896
 H        -3.921340        -1.752760         0.106069
 H        -2.483903         0.002787         3.401995
 H        -1.368180        -1.304165         2.929708
 H        -0.708834         1.528381         2.453772
 H        -3.566986         1.430894         1.692224
 H        -2.503084         1.227829        -1.189394
 H        -1.645365         2.496001        -0.230629
 H         0.703871         1.415186        -0.098116
 H        -1.913292        -0.994764        -0.984989
 H        -0.962476        -1.640049         0.397885
