19
Iteration:   188
 O        -3.635629        -1.686816         1.163080
 C        -2.731183        -0.644106         1.114590
 C        -1.921411        -0.452460         2.439837
 C        -1.474008         0.853805         1.875404
 C        -2.788904         1.003277         1.097077
 C        -2.060548         1.657902        -0.140797
 C        -0.966278         0.598393         0.336472
 O         0.377988         0.399610        -0.119828
 C        -1.681213        -0.782963         0.089284
 H        -4.200987        -1.681918         0.424686
 H        -2.579458        -0.262008         3.283960
 H        -1.305424        -1.251962         2.773702
 H        -0.920054         1.702006         2.312690
 H        -3.730234         1.433898         1.649459
 H        -2.365981         1.546927        -1.125500
 H        -1.711087         2.724148        -0.055834
 H         0.976717         0.716737         0.560509
 H        -2.113364        -0.910591        -0.887041
 H        -1.191711        -1.723093         0.300161
