19
Iteration:  2728charge 0 multiplicity 1
 O        -3.892893        -1.301480         1.286936
 C        -2.633077        -0.721614         1.071759
 C        -1.887071        -0.704213         2.399614
 C        -1.596200         0.765325         1.964045
 C        -2.822552         0.873919         1.024196
 C        -1.959789         1.468665        -0.191948
 C        -0.917264         0.564015         0.351478
 O         0.402127         0.648993        -0.028834
 C        -1.588000        -0.771573        -0.129476
 H        -3.771494        -2.096393         1.775132
 H        -2.579909        -0.785356         3.262709
 H        -0.977302        -1.331795         2.531899
 H        -1.199073         1.560586         2.715945
 H        -3.897649         1.234914         1.165983
 H        -2.102445         1.494429        -1.278815
 H        -1.672348         2.521545         0.021919
 H         0.971641         0.991086         0.643216
 H        -2.033610        -0.790152        -1.127421
 H        -0.795583        -1.531684        -0.044798
