19
Iteration:  1767charge 0 multiplicity 1
 O        -3.899601        -1.451413         1.312595
 C        -2.748095        -0.669771         1.092424
 C        -1.889837        -0.552257         2.333918
 C        -1.374782         0.731246         1.790799
 C        -2.727383         0.993734         1.118214
 C        -2.050490         1.482591        -0.184498
 C        -0.893455         0.432801         0.266023
 O         0.429931         0.763494         0.115304
 C        -1.665445        -0.955959        -0.018858
 H        -4.219765        -2.015038         0.555447
 H        -2.536768        -0.421243         3.223843
 H        -1.119263        -1.330322         2.570171
 H        -0.794056         1.551103         2.222343
 H        -3.700520         1.436968         1.456666
 H        -2.487794         1.342363        -1.231818
 H        -1.532913         2.481858        -0.164311
 H         0.383416         1.685642         0.362579
 H        -2.004972        -0.844329        -1.094164
 H        -1.029017        -1.912744         0.161811
