19
Iteration:   401charge 0 multiplicity 1
 O        -3.789777        -1.533289         1.333290
 C        -2.736111        -0.643259         1.067232
 C        -1.799265        -0.633160         2.325347
 C        -1.393174         0.750160         1.803437
 C        -2.830370         0.946238         1.050506
 C        -2.096180         1.584064        -0.157051
 C        -0.935576         0.561920         0.278706
 O         0.466867         0.601908         0.121546
 C        -1.731009        -0.814127        -0.084854
 H        -4.483707        -1.327341         0.746799
 H        -2.308135        -0.720308         3.285065
 H        -1.014625        -1.430111         2.254197
 H        -0.746945         1.393634         2.361691
 H        -3.671924         1.307102         1.485461
 H        -2.667852         1.636812        -1.092933
 H        -1.748586         2.576300         0.127507
 H         0.701002         1.323003         0.740211
 H        -2.288101        -0.701811        -1.031551
 H        -1.090414        -1.667604         0.125323
