19
Iteration:  2153
 O        -3.797037        -1.330123         0.861895
 C        -2.711966        -0.658533         1.195274
 C        -1.983709        -0.470466         2.642658
 C        -1.319937         0.809216         1.845180
 C        -2.749554         0.931424         1.138742
 C        -2.184987         1.267638        -0.228309
 C        -0.971262         0.415901         0.291303
 O         0.394104         0.861970        -0.162340
 C        -1.506051        -1.038722         0.292294
 H        -4.538182        -0.759909         1.025102
 H        -2.662681        -0.081189         3.404873
 H        -1.334950        -1.358894         2.835651
 H        -0.744019         1.521430         2.422256
 H        -3.609772         1.316207         1.664551
 H        -2.719142         0.847930        -1.061794
 H        -1.946172         2.331992        -0.386552
 H         1.035082         0.309590         0.321081
 H        -1.874027        -1.496036        -0.670789
 H        -0.777926        -1.691462         0.785386
