19
Iteration:  1321
 O        -3.920102        -1.327320         0.840277
 C        -2.687928        -0.651697         1.199875
 C        -1.996723        -0.532480         2.685877
 C        -1.335415         0.646827         1.948759
 C        -2.705097         0.870252         1.238375
 C        -2.048738         1.362676        -0.124255
 C        -0.901215         0.448528         0.346341
 O         0.287772         0.918779        -0.301638
 C        -1.401181        -1.023192         0.207235
 H        -4.611462        -0.668210         0.829551
 H        -2.640395        -0.164121         3.429314
 H        -1.414391        -1.365640         3.037658
 H        -0.891866         1.410518         2.563021
 H        -3.542339         1.433723         1.617550
 H        -2.561546         1.082488        -1.011419
 H        -1.853367         2.388891        -0.067721
 H         0.140009         0.633986        -1.241074
 H        -1.601503        -1.408525        -0.758578
 H        -0.738174        -1.734537         0.622256
