19
Iteration:  1514charge 0 multiplicity 1
 O        -3.884791        -1.329926         0.990237
 C        -2.709670        -0.634785         1.211905
 C        -1.857985        -0.557271         2.537271
 C        -1.382985         0.785784         1.816239
 C        -2.747632         0.950502         1.085860
 C        -2.157442         1.231891        -0.271047
 C        -0.934779         0.430324         0.304291
 O         0.346426         0.898574        -0.094051
 C        -1.476118        -1.001079         0.292177
 H        -4.607029        -0.732921         0.961322
 H        -2.458287        -0.238879         3.401615
 H        -1.253722        -1.450630         2.655047
 H        -0.910419         1.585789         2.314462
 H        -3.603373         1.361272         1.571894
 H        -2.682745         0.692803        -1.143960
 H        -1.922167         2.261928        -0.546196
 H         1.150974         0.485455         0.311268
 H        -1.742513        -1.228436        -0.746810
 H        -0.909485        -1.772065         0.828474
