19
Iteration:  1944charge 0 multiplicity 1
 O        -3.721413        -1.573703         1.042374
 C        -2.718904        -0.628395         1.189082
 C        -1.916483        -0.451167         2.482542
 C        -1.431481         0.793453         1.780245
 C        -2.817864         0.993820         1.084993
 C        -2.052205         1.546802        -0.230301
 C        -0.965928         0.509253         0.334049
 O         0.409124         0.575455        -0.027494
 C        -1.621928        -0.854420         0.130152
 H        -4.472349        -1.302007         1.663731
 H        -2.646686        -0.148801         3.237370
 H        -1.244246        -1.284948         2.732328
 H        -0.882774         1.656272         2.222424
 H        -3.728353         1.367985         1.586332
 H        -2.422136         1.276116        -1.216439
 H        -1.882616         2.641226        -0.107829
 H         0.871048         0.031283         0.613121
 H        -2.027897        -0.922025        -0.915902
 H        -1.014847        -1.740925         0.361828
