19
Iteration:  3069
 O        -3.869250        -1.574486         1.230786
 C        -2.729867        -0.614042         1.078398
 C        -1.876162        -0.532145         2.395926
 C        -1.426915         0.764658         1.781439
 C        -2.766805         1.043147         1.153607
 C        -2.128711         1.524327        -0.193739
 C        -0.958148         0.529764         0.238080
 O         0.451713         0.572267         0.101661
 C        -1.568544        -0.840305        -0.000880
 H        -4.252206        -1.696662         0.336149
 H        -2.385788        -0.230081         3.308617
 H        -1.078182        -1.256668         2.589296
 H        -0.812949         1.457202         2.333781
 H        -3.648144         1.487537         1.496422
 H        -2.599949         1.405342        -1.215373
 H        -1.797866         2.624791        -0.108980
 H         0.898953         0.958477         0.868276
 H        -1.997280        -1.038211        -0.973072
 H        -0.936659        -1.670037         0.289487
