19
Iteration:   589charge 0 multiplicity 1
 O        -3.785996        -1.632118         0.983670
 C        -2.691804        -0.698290         1.192168
 C        -1.859308        -0.481418         2.532075
 C        -1.374387         0.726606         1.826778
 C        -2.807338         1.008758         1.110643
 C        -2.069939         1.622964        -0.095782
 C        -0.959480         0.533438         0.342372
 O         0.367465         0.586198        -0.053577
 C        -1.606149        -0.784738         0.034089
 H        -4.310398        -1.426842         1.795423
 H        -2.547920        -0.179382         3.384258
 H        -1.277018        -1.335446         2.919329
 H        -1.065492         1.568573         2.531985
 H        -3.641792         1.442353         1.659207
 H        -2.392177         1.457640        -1.211021
 H        -1.747882         2.634934         0.076804
 H         0.331669         0.452732        -1.039338
 H        -2.006609        -0.882385        -1.059562
 H        -0.970353        -1.615447         0.421151
