19
Iteration:   552
 O        -3.708340        -1.586552         1.244290
 C        -2.742389        -0.574904         1.066052
 C        -1.755148        -0.611429         2.347684
 C        -1.450063         0.750698         1.819903
 C        -2.908268         1.030226         1.043111
 C        -2.050206         1.669092        -0.161288
 C        -0.978913         0.485241         0.334009
 O         0.415759         0.571668         0.191803
 C        -1.780398        -0.757073        -0.113122
 H        -3.533893        -2.205905         1.908047
 H        -2.232829        -0.536063         3.285619
 H        -0.938732        -1.341070         2.355404
 H        -0.981590         1.477897         2.424227
 H        -3.644522         1.653847         1.530316
 H        -2.366918         1.521038        -1.178340
 H        -1.787233         2.754470        -0.032127
 H         0.828016        -0.006713        -0.479582
 H        -2.164379        -0.771202        -1.054601
 H        -1.266307        -1.691171        -0.091546
