19
Iteration:  1574charge 0 multiplicity 1
 O        -3.564217        -1.707542         1.182831
 C        -2.739189        -0.632384         1.169427
 C        -2.016833        -0.382908         2.484841
 C        -1.562973         0.913636         1.833219
 C        -2.843248         1.044110         1.019922
 C        -1.962295         1.631674        -0.223898
 C        -0.938274         0.532256         0.289605
 O         0.410905         0.405847         0.001007
 C        -1.712754        -0.743449         0.009498
 H        -3.316535        -2.238259         1.940587
 H        -2.711026        -0.192387         3.315772
 H        -1.384996        -1.285707         2.772480
 H        -0.966560         1.696935         2.477304
 H        -3.798493         1.609233         1.388373
 H        -2.131515         1.612458        -1.286996
 H        -1.894604         2.688324         0.189378
 H         0.438096        -0.561499        -0.064632
 H        -2.128121        -0.718946        -1.027259
 H        -1.092368        -1.624244         0.032023
