19
Iteration:  4368charge 0 multiplicity 1
 O        -3.814352        -1.399710         1.183534
 C        -2.667778        -0.712632         1.128360
 C        -1.979684        -0.598530         2.444070
 C        -1.544968         0.771952         1.881802
 C        -2.762568         1.016211         0.939229
 C        -1.914814         1.492862        -0.158209
 C        -0.924214         0.478073         0.360809
 O         0.399300         0.650103        -0.009890
 C        -1.636702        -0.871062         0.056706
 H        -4.297152        -1.519813         0.385190
 H        -2.769205        -0.355655         3.206299
 H        -1.261533        -1.367431         2.713948
 H        -0.843167         1.459566         2.419775
 H        -3.718330         1.530136         1.283267
 H        -2.289083         1.450953        -1.153572
 H        -1.552536         2.541542         0.119465
 H         0.990967         0.541527         0.708482
 H        -2.194896        -0.929555        -0.822245
 H        -1.005603        -1.762073         0.202299
