19
Iteration:  1316
 O        -3.873598        -1.339426         0.815335
 C        -2.712113        -0.671650         1.213005
 C        -2.030765        -0.522864         2.649099
 C        -1.344828         0.662350         1.908608
 C        -2.673261         0.899271         1.266119
 C        -2.048804         1.383081        -0.061250
 C        -0.905793         0.440093         0.351184
 O         0.266933         0.891938        -0.344863
 C        -1.387834        -1.015492         0.254601
 H        -4.595262        -0.633667         0.734974
 H        -2.699526        -0.196474         3.550180
 H        -1.478792        -1.484616         2.884563
 H        -0.967564         1.406947         2.703958
 H        -3.521121         1.512314         1.674006
 H        -2.651818         0.953002        -0.946567
 H        -1.786847         2.506171        -0.178970
 H         0.212985         0.616172        -1.255712
 H        -1.704346        -1.407490        -0.786045
 H        -0.607219        -1.687536         0.778940
