19
Iteration:   737charge 0 multiplicity 1
 O        -3.600448        -1.709355         1.090716
 C        -2.708187        -0.600956         1.137563
 C        -1.882875        -0.427686         2.411751
 C        -1.513641         0.891044         1.827583
 C        -2.797842         1.026870         1.133732
 C        -2.052772         1.627126        -0.080298
 C        -0.965492         0.494670         0.268309
 O         0.377883         0.426048         0.012165
 C        -1.694670        -0.732871         0.013506
 H        -4.506792        -1.465377         1.244252
 H        -2.735998        -0.309215         3.091700
 H        -1.103337        -1.160630         2.824100
 H        -1.024713         1.696514         2.373265
 H        -3.660085         1.589498         1.615730
 H        -2.566787         1.646223        -1.014363
 H        -1.766627         2.681100         0.211535
 H         0.716242        -0.489462        -0.081327
 H        -2.088266        -0.844341        -0.971004
 H        -1.058068        -1.640519         0.184683
