19
Iteration:  1479
 O        -3.974303        -1.174834         0.895622
 C        -2.631783        -0.698047         1.159462
 C        -1.805231        -0.491492         2.675356
 C        -1.423854         0.745662         1.811180
 C        -2.645291         0.789128         1.116119
 C        -2.210692         1.196458        -0.256254
 C        -0.900104         0.393709         0.347336
 O         0.283159         0.983865        -0.150760
 C        -1.473651        -1.068893         0.271339
 H        -4.592418        -0.514728         1.126297
 H        -2.491299        -0.094929         3.454204
 H        -1.266215        -1.165464         3.338360
 H        -0.917910         1.717726         2.216873
 H        -3.667526         1.052775         1.569054
 H        -2.610032         0.653123        -1.173152
 H        -1.842170         2.244750        -0.457780
 H         1.084833         0.649921         0.353615
 H        -1.449267        -1.400432        -0.814273
 H        -0.858948        -1.956441         0.634239
