19
Iteration:  1652
 O        -4.093794        -1.173857         1.081903
 C        -2.696874        -0.701469         1.176647
 C        -1.976122        -0.565430         2.539165
 C        -1.358475         0.771589         1.945591
 C        -2.711805         0.891417         1.064809
 C        -2.077956         1.230354        -0.234871
 C        -0.859503         0.441365         0.326839
 O         0.383685         0.935066        -0.153663
 C        -1.346417        -1.075368         0.202460
 H        -4.117175        -2.169958         0.897273
 H        -2.754820        -0.374821         3.298773
 H        -1.268003        -1.385465         2.805708
 H        -0.913290         1.617196         2.615111
 H        -3.674888         1.304150         1.532387
 H        -2.449119         0.813387        -1.154361
 H        -1.650350         2.245416        -0.321014
 H         0.156235         1.557539        -0.840625
 H        -1.718686        -1.306889        -0.817250
 H        -0.675954        -1.855785         0.558671
