19
Iteration:  3785
 O        -3.901171        -1.289730         0.869390
 C        -2.719752        -0.621015         1.139065
 C        -1.938675        -0.559318         2.530137
 C        -1.294957         0.657887         1.874304
 C        -2.647723         0.960375         1.121727
 C        -2.109684         1.343165        -0.249578
 C        -0.960375         0.407602         0.327711
 O         0.328196         0.877161        -0.008223
 C        -1.567117        -1.004567         0.235375
 H        -4.627137        -0.877660         1.312839
 H        -2.595033        -0.335086         3.399745
 H        -1.359143        -1.509330         2.832822
 H        -0.866302         1.537529         2.522191
 H        -3.332134         1.399107         1.870175
 H        -2.601831         0.973235        -1.218185
 H        -1.723792         2.341341        -0.428471
 H         1.148747         0.416328         0.073559
 H        -1.949056        -1.260771        -0.841388
 H        -0.821295        -1.765445         0.615306
