19
Iteration:  2815
 O        -3.960785        -1.257784         0.950866
 C        -2.626408        -0.713260         1.176392
 C        -1.950323        -0.623899         2.635033
 C        -1.561671         0.764505         2.002609
 C        -2.754407         0.851833         1.145033
 C        -1.991521         1.433442        -0.060435
 C        -0.846232         0.532580         0.365525
 O         0.369766         0.648620        -0.308945
 C        -1.469801        -0.864699         0.153361
 H        -3.796750        -1.984072         0.380792
 H        -2.758227        -0.493099         3.379353
 H        -1.068211        -1.241698         2.926142
 H        -1.174468         1.644953         2.558182
 H        -3.739972         1.277650         1.551719
 H        -2.337664         1.318228        -1.115065
 H        -1.811867         2.538608        -0.030939
 H         0.566514         1.464986        -0.755920
 H        -1.902538        -1.062812        -0.835488
 H        -0.869232        -1.762891         0.331521
