19
Iteration:  2207charge 0 multiplicity 1
 O        -3.798665        -1.545557         1.258270
 C        -2.733108        -0.652859         1.133440
 C        -1.981290        -0.486593         2.457308
 C        -1.536604         0.841311         1.846316
 C        -2.770294         1.005537         0.980658
 C        -1.957147         1.469225        -0.205583
 C        -0.923111         0.497508         0.284487
 O         0.453772         0.703079        -0.082920
 C        -1.623838        -0.877831         0.182331
 H        -3.932977        -1.887738         0.362527
 H        -2.737389        -0.469727         3.261360
 H        -1.341546        -1.358332         2.723680
 H        -1.214130         1.640260         2.480182
 H        -3.609322         1.544679         1.344822
 H        -2.436804         1.373784        -1.166298
 H        -1.644600         2.477044         0.107003
 H         1.053589        -0.034397         0.018454
 H        -1.962470        -1.026488        -0.888193
 H        -1.100524        -1.810397         0.480193
