19
Iteration:   345
 O        -3.829387        -1.429455         1.113546
 C        -2.687129        -0.668151         1.121935
 C        -1.847193        -0.674347         2.430436
 C        -1.446793         0.770562         1.877434
 C        -2.810961         0.934620         1.158406
 C        -2.049629         1.566797        -0.078553
 C        -0.905621         0.583661         0.420509
 O         0.375260         0.576707        -0.189061
 C        -1.618631        -0.840346         0.096409
 H        -4.066212        -1.607319         0.165607
 H        -2.450481        -0.536880         3.324354
 H        -1.123330        -1.500375         2.593618
 H        -1.065994         1.471402         2.610920
 H        -3.552917         1.406759         1.742699
 H        -2.476156         1.477392        -1.048686
 H        -2.034697         2.640583         0.153196
 H         0.604516         1.504059        -0.302369
 H        -1.965571        -1.052212        -0.914346
 H        -0.961270        -1.720034         0.238546
