19
Iteration:   320charge 0 multiplicity 1
 O        -3.813961        -1.482134         0.828435
 C        -2.693626        -0.611191         1.149374
 C        -1.962300        -0.567049         2.657204
 C        -1.359975         0.738815         2.024334
 C        -2.718472         0.965618         1.267587
 C        -2.093827         1.521412         0.022317
 C        -0.913723         0.504633         0.297008
 O         0.245636         0.577531        -0.433555
 C        -1.467852        -0.859365         0.222170
 H        -4.009383        -1.222698        -0.060977
 H        -2.679136        -0.201187         3.422719
 H        -1.405254        -1.391655         3.045447
 H        -0.725750         1.501951         2.605384
 H        -3.804627         1.283502         1.732551
 H        -2.711769         1.468288        -0.887649
 H        -1.892783         2.682475         0.171323
 H         0.517016         1.459161        -0.177088
 H        -1.670942        -1.273482        -0.727986
 H        -0.757867        -1.639116         0.536863
