19
Iteration:  2149
 O        -3.783810        -1.365098         0.827621
 C        -2.709077        -0.652018         1.191659
 C        -1.957807        -0.421689         2.646122
 C        -1.339301         0.773316         1.828629
 C        -2.746156         0.970136         1.169160
 C        -2.218941         1.259382        -0.217372
 C        -0.939210         0.381795         0.287151
 O         0.406852         0.866597        -0.155131
 C        -1.552722        -1.025624         0.311116
 H        -4.537808        -0.832673         1.227998
 H        -2.652567        -0.087849         3.450504
 H        -1.386990        -1.352716         2.708622
 H        -0.698128         1.443978         2.370387
 H        -3.605704         1.449303         1.631643
 H        -2.779445         0.909892        -1.116956
 H        -1.852426         2.281341        -0.485830
 H         1.022441         0.366307         0.439721
 H        -1.854017        -1.368214        -0.703034
 H        -0.813493        -1.731642         0.777773
