19
Iteration:  1665
 O        -4.032050        -1.270408         1.001255
 C        -2.729423        -0.603456         1.203366
 C        -2.013263        -0.585229         2.562884
 C        -1.419013         0.683734         1.887127
 C        -2.676712         0.949501         1.140095
 C        -2.007640         1.222689        -0.208026
 C        -0.827585         0.425450         0.363976
 O         0.384554         0.885484        -0.275822
 C        -1.430229        -0.946975         0.295029
 H        -3.847019        -2.184082         0.871579
 H        -2.648859        -0.256642         3.431827
 H        -1.439934        -1.490394         2.870407
 H        -0.850349         1.451211         2.374804
 H        -3.532354         1.483219         1.486302
 H        -2.674241         0.811431        -1.020606
 H        -1.875523         2.294782        -0.427913
 H         0.080828         1.802299        -0.602056
 H        -1.521110        -1.259475        -0.793105
 H        -0.837236        -1.714151         0.935709
