19
Iteration:  4370charge 0 multiplicity 1
 O        -3.805310        -1.389633         1.178806
 C        -2.680737        -0.715775         1.113024
 C        -2.004069        -0.589325         2.447765
 C        -1.526652         0.785946         1.893613
 C        -2.753270         1.002086         0.966279
 C        -1.928683         1.484263        -0.147939
 C        -0.926077         0.454667         0.339263
 O         0.406628         0.661709        -0.017926
 C        -1.642017        -0.866929         0.057990
 H        -4.243389        -1.546087         0.344230
 H        -2.778060        -0.339213         3.190262
 H        -1.251073        -1.356455         2.670404
 H        -0.869798         1.446678         2.443144
 H        -3.714352         1.487612         1.334207
 H        -2.314332         1.477481        -1.195429
 H        -1.531811         2.529481         0.053842
 H         1.018556         0.508560         0.746382
 H        -2.126988        -0.951240        -0.868463
 H        -1.022415        -1.750369         0.341646
