19
Iteration:   177charge 0 multiplicity 1
 O        -3.725803        -1.608945         1.104978
 C        -2.661628        -0.633434         1.198085
 C        -2.012585        -0.506510         2.529036
 C        -1.380766         0.850576         1.825136
 C        -2.807211         1.003724         1.114297
 C        -2.061938         1.543040        -0.146124
 C        -0.962782         0.552848         0.317343
 O         0.368382         0.480100        -0.198588
 C        -1.597459        -0.817113         0.156945
 H        -4.048522        -1.507914         0.176137
 H        -2.775378        -0.300249         3.269374
 H        -1.322949        -1.280792         2.748834
 H        -1.218523         1.759929         2.401105
 H        -3.729502         1.459927         1.676210
 H        -2.566068         1.474243        -1.044027
 H        -1.756509         2.593416         0.123118
 H         1.019484         0.825256         0.419080
 H        -1.999538        -0.823322        -0.837611
 H        -0.818649        -1.551668         0.298176
