19
Iteration:   406
 O        -3.784219        -1.525000         1.296595
 C        -2.731484        -0.648991         1.098356
 C        -1.804881        -0.623648         2.293398
 C        -1.439401         0.770666         1.830524
 C        -2.827330         0.951313         1.095770
 C        -2.088477         1.519653        -0.130725
 C        -0.929175         0.553772         0.286479
 O         0.450195         0.583481         0.061159
 C        -1.682003        -0.784364        -0.073134
 H        -4.556550        -1.264822         0.683885
 H        -2.322302        -0.624772         3.283008
 H        -1.035990        -1.397288         2.285694
 H        -0.825139         1.571222         2.365001
 H        -3.791515         1.480850         1.565516
 H        -2.506122         1.618441        -1.165036
 H        -1.833973         2.518788         0.310434
 H         0.741375         1.215626         0.735001
 H        -2.246148        -0.777330        -1.018497
 H        -0.992141        -1.630007         0.099466
