19
Iteration:  1307
 O        -3.796649        -1.375760         0.773309
 C        -2.713620        -0.664881         1.238566
 C        -2.063003        -0.612518         2.535712
 C        -1.342463         0.718267         1.935440
 C        -2.665091         1.005655         1.245540
 C        -2.107787         1.382837         0.018530
 C        -0.913075         0.459974         0.315185
 O         0.265855         0.816006        -0.377964
 C        -1.421067        -0.950309         0.381307
 H        -4.541377        -0.710076         0.598622
 H        -2.675305        -0.238525         3.419358
 H        -1.491477        -1.521428         2.856966
 H        -0.776069         1.564133         2.557470
 H        -3.444931         1.391991         1.951678
 H        -2.685021         1.070874        -0.899941
 H        -1.686026         2.357461        -0.206033
 H         0.221001         0.448190        -1.257509
 H        -1.774075        -1.330779        -0.623671
 H        -0.688349        -1.622034         0.895407
