19
Iteration:  4565charge 0 multiplicity 1
 O        -3.889305        -1.411751         1.021052
 C        -2.652451        -0.669467         1.200241
 C        -2.043521        -0.521865         2.520178
 C        -1.366611         0.713303         1.891708
 C        -2.684142         1.128420         1.115603
 C        -1.896744         1.388999        -0.170296
 C        -0.979637         0.444801         0.341409
 O         0.322080         0.748864         0.004832
 C        -1.588972        -0.994895         0.100758
 H        -3.957077        -1.509908         0.046408
 H        -2.810972        -0.231700         3.260485
 H        -1.513071        -1.245533         3.045703
 H        -0.753106         1.377790         2.477341
 H        -3.684632         1.583615         1.499149
 H        -2.460739         1.183556        -1.038155
 H        -1.473740         2.406607        -0.364732
 H         0.295736         0.614672        -0.984846
 H        -1.830468        -1.028188        -1.014789
 H        -0.942428        -1.894684         0.348878
