19
Iteration:  4960charge 0 multiplicity 1
 O        -3.842103        -1.444556         1.067034
 C        -2.698584        -0.582921         1.003887
 C        -1.932117        -0.555593         2.418094
 C        -1.460297         0.693933         1.880875
 C        -2.852147         1.014411         1.045226
 C        -1.943570         1.538438        -0.064951
 C        -0.966309         0.472338         0.333788
 O         0.413506         0.555035         0.000626
 C        -1.592184        -0.859593         0.061229
 H        -3.934725        -1.488792         2.015523
 H        -2.525099        -0.609623         3.372198
 H        -1.127548        -1.376755         2.496208
 H        -0.887877         1.628036         2.286775
 H        -3.770152         1.430433         1.330996
 H        -2.528780         1.491289        -1.087257
 H        -1.545387         2.520981         0.313475
 H         0.723954         1.382431         0.340915
 H        -1.866730        -1.067481        -0.954610
 H        -1.090647        -1.817985         0.328544
