19
Iteration:   343charge 0 multiplicity 1
 O        -3.827750        -1.426460         1.088815
 C        -2.670565        -0.678601         1.141482
 C        -1.863071        -0.671856         2.442864
 C        -1.451532         0.771823         1.881225
 C        -2.802474         0.927196         1.164551
 C        -2.045045         1.556740        -0.076868
 C        -0.915518         0.593127         0.413290
 O         0.363690         0.570763        -0.211827
 C        -1.607862        -0.839374         0.109534
 H        -4.097406        -1.592245         0.121450
 H        -2.482409        -0.528981         3.330950
 H        -1.150330        -1.470956         2.585245
 H        -1.062085         1.479871         2.657550
 H        -3.579878         1.476101         1.827666
 H        -2.501623         1.471338        -1.045011
 H        -1.997464         2.684940         0.191897
 H         0.665159         1.499998        -0.343135
 H        -1.940625        -1.047573        -0.880255
 H        -0.905636        -1.678576         0.281263
