19
Iteration:  2571charge 0 multiplicity 1
 O        -3.828117        -1.449719         1.239086
 C        -2.661907        -0.656494         1.118149
 C        -1.758617        -0.606144         2.301833
 C        -1.495845         0.838772         1.769169
 C        -2.814842         0.917232         1.102796
 C        -2.138342         1.553096        -0.220292
 C        -0.996578         0.607543         0.280096
 O         0.457820         0.408164         0.180835
 C        -1.647661        -0.746118         0.026860
 H        -4.342451        -1.407425         0.382278
 H        -2.066526        -0.653586         3.371802
 H        -0.908824        -1.312730         2.156891
 H        -1.109564         1.738531         2.191116
 H        -3.612674         1.337547         1.650175
 H        -2.711507         1.199231        -1.124735
 H        -1.895245         2.638233        -0.135686
 H         0.914371         1.070877         0.699461
 H        -2.060313        -0.814796        -1.013046
 H        -0.868429        -1.516887         0.242252
