19
Iteration:  1199charge 0 multiplicity 1
 O        -3.979487        -1.310624         1.186191
 C        -2.729513        -0.694198         1.102332
 C        -1.742931        -0.682044         2.394322
 C        -1.429550         0.674483         1.767996
 C        -2.762507         0.894022         1.106693
 C        -2.111625         1.502323        -0.057246
 C        -0.879673         0.504836         0.286816
 O         0.443592         0.725671         0.024565
 C        -1.637773        -0.833553        -0.030612
 H        -3.853364        -2.293107         1.349023
 H        -2.393864        -0.609597         3.248633
 H        -1.006831        -1.463942         2.400771
 H        -0.887400         1.563725         2.327571
 H        -3.716441         1.294024         1.559519
 H        -2.490358         1.386513        -1.061271
 H        -1.851355         2.497990         0.181549
 H         0.775213         1.562505         0.389504
 H        -2.166209        -0.708806        -0.970463
 H        -1.066134        -1.739355         0.031643
