19
Iteration:  1763charge 0 multiplicity 1
 O        -3.890932        -1.472470         1.341646
 C        -2.766329        -0.659393         1.076638
 C        -1.857879        -0.593797         2.317729
 C        -1.395883         0.777431         1.786809
 C        -2.759688         1.025139         1.127333
 C        -2.015774         1.519019        -0.226248
 C        -0.908987         0.412994         0.277462
 O         0.430023         0.745620         0.147968
 C        -1.674191        -0.957119        -0.063362
 H        -4.068767        -2.093467         0.619615
 H        -2.471190        -0.378101         3.227816
 H        -1.130241        -1.346070         2.631508
 H        -0.723062         1.478172         2.250610
 H        -3.664223         1.396140         1.497486
 H        -2.479380         1.272654        -1.188419
 H        -1.581056         2.493281        -0.217180
 H         0.429381         1.717075         0.378900
 H        -1.996016        -0.793060        -1.087433
 H        -1.147700        -1.891884         0.181434
