19
Iteration:  3344charge 0 multiplicity 1
 O        -3.886375        -1.398753         1.152179
 C        -2.752242        -0.638451         1.084177
 C        -1.978546        -0.590760         2.430613
 C        -1.332553         0.743569         1.842299
 C        -2.792210         0.924756         1.060405
 C        -1.996799         1.418888        -0.128792
 C        -0.875028         0.473169         0.250795
 O         0.397391         0.835324        -0.013697
 C        -1.595343        -0.994095         0.121754
 H        -4.488386        -1.117727         0.479253
 H        -2.694352        -0.267271         3.234115
 H        -1.255722        -1.387609         2.621438
 H        -0.982746         1.521750         2.612818
 H        -3.721921         1.456394         1.448506
 H        -2.321180         1.399282        -1.181889
 H        -1.656777         2.477850         0.049984
 H         1.041243         0.554680         0.606632
 H        -1.988217        -1.281042        -0.896036
 H        -0.985971        -1.864942         0.545117
