19
Iteration:  2253
 O        -3.691681        -1.588376         1.178374
 C        -2.696200        -0.661992         1.159982
 C        -1.896414        -0.381799         2.454045
 C        -1.505687         0.876461         1.745973
 C        -2.862254         1.015593         1.069442
 C        -2.153992         1.566399        -0.265341
 C        -0.923525         0.525832         0.339810
 O         0.489594         0.418387         0.083324
 C        -1.705640        -0.815020         0.067235
 H        -3.735975        -1.841187         0.203641
 H        -2.396568        -0.350154         3.424946
 H        -1.061168        -1.119846         2.537497
 H        -1.004412         1.864683         2.115541
 H        -3.777604         1.532038         1.562267
 H        -2.431517         1.387035        -1.287250
 H        -1.649697         2.489077        -0.065156
 H         0.892185         0.397544         0.962714
 H        -2.346761        -0.917295        -0.846693
 H        -1.079963        -1.716993         0.030278
