19
Iteration:  3605
 O        -3.854084        -1.384216         0.978353
 C        -2.727938        -0.572824         1.169304
 C        -1.955436        -0.470323         2.463393
 C        -1.314245         0.732330         1.849177
 C        -2.760209         1.013693         1.114855
 C        -2.052024         1.374948        -0.191802
 C        -0.929631         0.394059         0.385493
 O         0.433188         0.650781        -0.000770
 C        -1.643238        -0.911883         0.229222
 H        -3.567731        -2.007080         0.235236
 H        -2.752543        -0.428025         3.259345
 H        -1.285232        -1.348105         2.683563
 H        -0.827822         1.598873         2.320107
 H        -3.659673         1.599950         1.403332
 H        -2.517367         0.953039        -1.083786
 H        -1.879941         2.483825        -0.140967
 H         0.367841         1.506763        -0.514742
 H        -2.087270        -0.918778        -0.765050
 H        -1.210101        -1.906906         0.406276
