19
Iteration:  1733charge 0 multiplicity 1
 O        -3.806771        -1.525845         1.258376
 C        -2.737434        -0.675629         1.135539
 C        -1.809166        -0.571480         2.331079
 C        -1.476872         0.915140         1.786486
 C        -2.825756         0.928457         0.998027
 C        -2.066612         1.586760        -0.193210
 C        -0.941722         0.546040         0.313367
 O         0.434408         0.413974         0.125827
 C        -1.695482        -0.702912         0.052817
 H        -3.515920        -2.383403         0.924624
 H        -2.215423        -0.550073         3.366141
 H        -0.904921        -1.216680         2.376427
 H        -1.063231         1.696549         2.373044
 H        -3.769576         1.386992         1.258558
 H        -2.403741         1.439624        -1.283824
 H        -1.919227         2.656700         0.062301
 H         0.913331         1.218319         0.306187
 H        -2.245416        -0.579693        -0.941635
 H        -1.036529        -1.685081         0.003548
