19
Iteration:  1073
 O        -3.855499        -1.508457         1.248737
 C        -2.722030        -0.624191         1.160985
 C        -1.652853        -0.689480         2.280584
 C        -1.414985         0.741807         1.751666
 C        -2.829610         0.996886         1.169604
 C        -2.095859         1.532555        -0.228793
 C        -1.015575         0.566929         0.271651
 O         0.432174         0.572271         0.257550
 C        -1.693126        -0.779200        -0.067855
 H        -4.480166        -1.107441         0.668964
 H        -1.807950        -0.882248         3.343596
 H        -0.840920        -1.439991         2.079329
 H        -0.860701         1.426072         2.254550
 H        -3.600059         1.606925         1.645795
 H        -2.526332         1.330575        -1.188903
 H        -1.987330         2.641469        -0.284900
 H         0.703747         1.525517         0.160842
 H        -2.260769        -0.782609        -1.044400
 H        -1.228460        -1.774513        -0.099472
