19
Iteration:  3480charge 0 multiplicity 1
 O        -3.960067        -1.327579         1.045713
 C        -2.726063        -0.639767         1.123815
 C        -1.903501        -0.559157         2.506193
 C        -1.470914         0.825948         1.934519
 C        -2.782744         0.938931         1.028625
 C        -2.017422         1.408004        -0.165902
 C        -0.924720         0.491780         0.402938
 O         0.369248         0.759198        -0.132903
 C        -1.431688        -1.040167         0.222418
 H        -4.210368        -1.355431         0.086904
 H        -2.616067        -0.356468         3.288312
 H        -1.084634        -1.228194         2.794646
 H        -0.944285         1.571740         2.525301
 H        -3.631320         1.388942         1.492320
 H        -2.383612         1.167422        -1.210152
 H        -1.726579         2.464181        -0.203388
 H         0.898770        -0.103470        -0.066015
 H        -1.702617        -1.179396        -0.806185
 H        -0.819352        -1.853863         0.536935
