19
Iteration:  2091
 O        -3.849179        -1.426262         1.326252
 C        -2.691619        -0.718455         1.044874
 C        -1.961866        -0.490825         2.422171
 C        -1.602872         0.889467         1.776150
 C        -2.893672         0.882915         0.948279
 C        -2.023264         1.582408        -0.122978
 C        -0.874575         0.538337         0.320642
 O         0.522316         0.543665        -0.064946
 C        -1.558648        -0.926772         0.018385
 H        -3.485250        -2.123315         1.837311
 H        -2.662653        -0.422700         3.255572
 H        -1.375827        -1.334384         2.760615
 H        -1.387083         1.857619         2.428596
 H        -3.801736         1.530833         1.282930
 H        -2.278106         1.558254        -1.230088
 H        -1.837241         2.584668         0.284984
 H         1.020473         0.487483         0.780232
 H        -1.701045        -0.994647        -1.031955
 H        -0.737237        -1.590916         0.225563
