19
Iteration:  3593charge 0 multiplicity 1
 O        -3.843979        -1.483140         1.014587
 C        -2.722834        -0.569259         1.145777
 C        -1.960046        -0.465359         2.522899
 C        -1.393722         0.817275         1.853277
 C        -2.759732         0.977266         1.074846
 C        -2.051767         1.395661        -0.150923
 C        -0.913148         0.488825         0.397550
 O         0.406687         0.537179        -0.005554
 C        -1.625578        -0.855849         0.080941
 H        -3.948193        -1.873616         0.146727
 H        -2.531082         0.034450         3.382434
 H        -1.339698        -1.347808         2.859385
 H        -0.633662         1.465943         2.422059
 H        -3.532870         1.439162         1.716903
 H        -2.546969         1.209254        -1.127867
 H        -1.658100         2.468028        -0.296827
 H         0.597602         1.484577        -0.186255
 H        -2.024698        -1.018277        -0.913200
 H        -1.016318        -1.678192         0.436056
