19
Iteration:   579charge 0 multiplicity 1
 O        -3.761759        -1.669405         1.058859
 C        -2.741690        -0.681361         1.124289
 C        -1.877669        -0.503627         2.463424
 C        -1.445137         0.835236         1.832159
 C        -2.824445         0.974014         1.138986
 C        -1.987996         1.629351        -0.093166
 C        -0.961019         0.554247         0.363913
 O         0.410589         0.543561        -0.018240
 C        -1.672696        -0.763041         0.021664
 H        -4.132169        -1.905025         1.902349
 H        -2.561461        -0.266571         3.346605
 H        -1.064724        -1.228047         2.679272
 H        -0.867291         1.716328         2.297546
 H        -3.595237         1.563986         1.709306
 H        -2.366753         1.489232        -1.179670
 H        -1.788037         2.677922         0.082989
 H         0.492132         0.313630        -0.971118
 H        -2.173915        -0.720918        -1.052224
 H        -0.944725        -1.655281        -0.005984
