19
Iteration:   774charge 0 multiplicity 1
 O        -3.958083        -1.392782         0.991828
 C        -2.695328        -0.628665         1.165801
 C        -1.876101        -0.584577         2.472774
 C        -1.438773         0.757522         1.840883
 C        -2.756493         0.913332         1.115990
 C        -2.026304         1.343690        -0.158632
 C        -0.873012         0.461049         0.324620
 O         0.388201         0.860681        -0.128923
 C        -1.588080        -0.882713         0.160110
 H        -4.278758        -1.566434         1.920709
 H        -2.534330        -0.627623         3.420026
 H        -0.985982        -1.202511         2.772967
 H        -0.984801         1.616239         2.478730
 H        -3.570194         1.397800         1.584726
 H        -2.529095         1.161038        -1.143496
 H        -1.799504         2.378247        -0.101238
 H         1.110062         0.287859         0.247905
 H        -1.959631        -1.154339        -0.878762
 H        -1.055478        -1.803345         0.490977
