19
Iteration:  5000charge 0 multiplicity 1
 O        -3.871688        -1.539276         0.954071
 C        -2.739231        -0.601258         1.194125
 C        -1.911803        -0.611887         2.510016
 C        -1.364494         0.762250         1.825176
 C        -2.786614         0.943010         1.102722
 C        -2.075411         1.529388        -0.130988
 C        -0.835619         0.507928         0.323345
 O         0.487321         0.596084         0.072934
 C        -1.655029        -0.752060         0.053187
 H        -4.673778        -1.019821         1.241346
 H        -2.530728        -0.320888         3.388428
 H        -1.374972        -1.511771         2.756735
 H        -0.864469         1.414430         2.496723
 H        -3.628256         1.373703         1.694667
 H        -2.505215         1.392093        -1.067119
 H        -1.897448         2.606296        -0.134699
 H         0.613618         0.779810        -0.923828
 H        -2.185808        -0.747313        -0.915664
 H        -1.125640        -1.693631         0.175050
