19
Iteration:  2233
 O        -3.743977        -1.702067         1.208590
 C        -2.714245        -0.646244         1.130892
 C        -1.888052        -0.325532         2.500162
 C        -1.390512         0.829485         1.729960
 C        -2.753392         1.088316         1.065706
 C        -2.006352         1.530857        -0.221205
 C        -1.027903         0.537496         0.251731
 O         0.366409         0.526526         0.138130
 C        -1.694271        -0.833960        -0.024104
 H        -3.574219        -2.076859         0.353267
 H        -2.657155        -0.028621         3.212313
 H        -1.510150        -1.201850         3.018456
 H        -0.691721         1.654845         2.274589
 H        -3.748120         1.580147         1.509277
 H        -2.436650         1.191588        -1.198943
 H        -1.904092         2.595134        -0.124285
 H         0.844099         0.012215         0.786335
 H        -2.116742        -0.775890        -1.006851
 H        -1.216509        -1.792385         0.108491
