19
Iteration:  4527charge 0 multiplicity 1
 O        -3.860357        -1.383655         1.173543
 C        -2.737098        -0.665185         1.168562
 C        -1.906020        -0.587317         2.423145
 C        -1.445654         0.783227         1.778125
 C        -2.896299         0.905521         1.047632
 C        -2.027727         1.524487        -0.201934
 C        -0.862102         0.569195         0.247082
 O         0.500773         0.536272         0.139057
 C        -1.614600        -0.827128         0.117772
 H        -4.223064        -1.129491         0.335472
 H        -2.583618        -0.399413         3.255081
 H        -1.172870        -1.462743         2.636626
 H        -1.081101         1.606001         2.458105
 H        -3.813094         1.262929         1.384885
 H        -2.323061         1.314452        -1.306284
 H        -1.977816         2.554972         0.146194
 H         0.982269         0.573173        -0.650702
 H        -1.954568        -1.018440        -0.921702
 H        -0.973746        -1.660762         0.382050
