19
Iteration:  1783charge 0 multiplicity 1
 O        -3.909792        -1.386259         1.179987
 C        -2.696553        -0.670770         1.155950
 C        -1.915005        -0.603671         2.484801
 C        -1.393778         0.712060         1.790606
 C        -2.782759         0.864650         1.057141
 C        -2.040787         1.434400        -0.160816
 C        -0.941861         0.505922         0.319593
 O         0.432398         0.752481        -0.081660
 C        -1.559573        -0.903744         0.088424
 H        -4.273046        -1.231826         0.242832
 H        -2.544737        -0.302414         3.332298
 H        -1.297411        -1.452704         2.784860
 H        -0.899413         1.492845         2.412376
 H        -3.496362         1.403964         1.662099
 H        -2.510512         1.305214        -1.110445
 H        -1.907963         2.467696         0.161319
 H         0.719286         1.632609         0.215647
 H        -2.017941        -1.074793        -0.860994
 H        -0.919398        -1.653659         0.430207
