19
Iteration:  4522
 O        -3.858849        -1.380531         1.183385
 C        -2.672905        -0.686284         1.164632
 C        -1.891210        -0.573741         2.413511
 C        -1.485139         0.777367         1.780879
 C        -2.872484         0.912435         1.023910
 C        -2.050350         1.545269        -0.227852
 C        -0.909802         0.531349         0.306076
 O         0.479412         0.523331         0.164482
 C        -1.583385        -0.806352         0.081833
 H        -4.427370        -1.219132         0.371419
 H        -2.501955        -0.406022         3.346259
 H        -1.226821        -1.369534         2.718317
 H        -0.964131         1.508645         2.367732
 H        -3.876710         1.338335         1.413921
 H        -2.251431         1.425032        -1.263394
 H        -1.821954         2.606778         0.030159
 H         0.991347         0.526595        -0.714944
 H        -2.118556        -0.904001        -0.875736
 H        -0.896630        -1.677347         0.211768
