19
Iteration:    31
 O        -3.555092        -1.838269         1.109764
 C        -2.800042        -0.651887         1.162209
 C        -1.979886        -0.394493         2.534215
 C        -1.459916         0.785165         1.795883
 C        -2.802888         1.188031         1.123611
 C        -1.939011         1.657290        -0.097362
 C        -0.958005         0.522034         0.319778
 O         0.410375         0.524490        -0.133122
 C        -1.791486        -0.794066         0.002767
 H        -4.517701        -1.772128         1.222240
 H        -2.824587        -0.179847         3.319462
 H        -1.435983        -0.990072         3.364965
 H        -0.716787         1.506736         2.295488
 H        -3.637788         1.718975         1.398727
 H        -2.306277         1.599260        -1.241224
 H        -1.721312         2.673229         0.041484
 H         0.822847        -0.126774         0.483124
 H        -2.037503        -0.875055        -1.090693
 H        -1.275737        -1.770537         0.152222
