19
Iteration:  2677
 O        -3.878135        -1.360734         0.792618
 C        -2.673117        -0.664573         1.199959
 C        -1.884439        -0.539188         2.606425
 C        -1.314761         0.717390         1.892959
 C        -2.711509         1.003116         1.223353
 C        -2.158471         1.468214        -0.100896
 C        -0.940848         0.439220         0.341663
 O         0.361496         0.612002        -0.108721
 C        -1.601018        -0.858275         0.168373
 H        -3.634413        -2.309411         0.591022
 H        -2.498022        -0.231076         3.437853
 H        -1.142929        -1.306878         2.849122
 H        -0.740244         1.526076         2.418615
 H        -3.676858         1.491580         1.624181
 H        -2.677836         1.177922        -1.011161
 H        -2.031607         2.538351        -0.291701
 H         0.441225         1.522021        -0.407441
 H        -2.161932        -0.992209        -0.770178
 H        -0.951895        -1.710359         0.304675
