19
Iteration:  4533
 O        -3.898534        -1.421268         1.146195
 C        -2.769901        -0.589932         1.149108
 C        -1.917721        -0.588889         2.438061
 C        -1.401847         0.796381         1.802237
 C        -2.835229         0.886795         1.050071
 C        -2.020434         1.466173        -0.166486
 C        -0.876100         0.589701         0.237433
 O         0.545448         0.569677         0.122395
 C        -1.643828        -0.874611         0.134458
 H        -4.192616        -1.166702         0.219399
 H        -2.643598        -0.368084         3.263582
 H        -1.206727        -1.388558         2.489964
 H        -1.183276         1.653600         2.395521
 H        -3.793928         1.400840         1.492136
 H        -2.475667         1.369127        -1.119409
 H        -2.024783         2.548797         0.083762
 H         0.788383         0.659150        -0.852401
 H        -1.790166        -1.136378        -0.929770
 H        -0.992674        -1.659584         0.606963
