19
Iteration:  4619
 O        -3.946137        -1.434424         1.094644
 C        -2.713932        -0.625607         1.092630
 C        -1.832937        -0.539576         2.483773
 C        -1.489978         0.823567         1.891071
 C        -2.758910         0.949513         1.063030
 C        -1.977407         1.519404        -0.246165
 C        -0.932395         0.534041         0.341667
 O         0.389771         0.539098         0.093967
 C        -1.547660        -0.852615         0.132889
 H        -4.329410        -1.517455         0.171092
 H        -2.431587        -0.714975         3.392090
 H        -0.968102        -1.141561         2.495760
 H        -1.053364         1.660542         2.404785
 H        -3.697329         1.322591         1.612443
 H        -2.403026         1.261277        -1.226124
 H        -1.825961         2.622062         0.017994
 H         0.656630         0.320355        -0.852498
 H        -1.773110        -0.933522        -0.993547
 H        -0.987370        -1.739867         0.538700
