19
Iteration:   214
 O        -3.665309        -1.706065         1.364574
 C        -2.722326        -0.718453         1.114237
 C        -1.833941        -0.531160         2.313586
 C        -1.469668         0.838090         1.766744
 C        -2.839893         1.114727         1.041805
 C        -2.011964         1.620056        -0.156426
 C        -0.996882         0.584252         0.288699
 O         0.404115         0.414716         0.161477
 C        -1.755727        -0.720532        -0.084373
 H        -4.160221        -1.773509         0.573450
 H        -2.367842        -0.610457         3.300827
 H        -1.108095        -1.409128         2.324042
 H        -1.008940         1.848169         2.045232
 H        -3.683804         1.597645         1.509630
 H        -2.361208         1.686597        -1.254988
 H        -1.429390         2.553468         0.060299
 H         0.744830         1.251367         0.485729
 H        -2.372084        -0.486246        -1.018672
 H        -1.256725        -1.739539        -0.165544
