19
Iteration:   159charge 0 multiplicity 1
 O        -3.876250        -1.405405         1.029724
 C        -2.715217        -0.666858         1.184318
 C        -1.942243        -0.477554         2.580680
 C        -1.433436         0.733476         1.918061
 C        -2.760473         0.913834         1.133124
 C        -2.075479         1.396252        -0.126910
 C        -0.927980         0.517155         0.323956
 O         0.362640         0.683202        -0.274352
 C        -1.490266        -0.907532         0.204240
 H        -3.958496        -1.627107         0.061761
 H        -2.580326        -0.080193         3.427142
 H        -1.317052        -1.316647         3.009165
 H        -0.764058         1.544434         2.350760
 H        -3.670916         1.382960         1.594321
 H        -2.453539         1.167404        -1.182261
 H        -1.840148         2.494314        -0.145413
 H         0.853879         1.431502         0.108596
 H        -1.743550        -1.231227        -0.852051
 H        -0.922324        -1.799752         0.601229
