19
Iteration:  4926
 O        -4.018287        -1.433246         0.882678
 C        -2.764728        -0.674639         1.114528
 C        -1.922645        -0.516853         2.590361
 C        -1.309248         0.722768         1.845745
 C        -2.698718         0.931562         1.145495
 C        -2.074095         1.437036        -0.142595
 C        -0.949542         0.553476         0.339368
 O         0.498453         0.675458        -0.062908
 C        -1.596033        -0.828293         0.117311
 H        -3.974535        -2.135728         1.548620
 H        -2.568958        -0.221755         3.474905
 H        -1.127914        -1.281196         2.822925
 H        -0.904125         1.690807         2.256010
 H        -3.517256         1.465712         1.534007
 H        -2.616598         1.091224        -1.065218
 H        -1.819981         2.512843        -0.284294
 H         0.949650         0.483960         0.746818
 H        -2.112347        -0.734575        -0.817584
 H        -0.964146        -1.726400         0.204511
