19
Iteration:  4113charge 0 multiplicity 1
 O        -3.836675        -1.325179         0.826967
 C        -2.762909        -0.636302         1.130635
 C        -1.944969        -0.622538         2.505915
 C        -1.406388         0.672758         1.913306
 C        -2.697373         1.080419         1.261260
 C        -2.030278         1.487052        -0.073771
 C        -0.952650         0.482445         0.388761
 O         0.319447         0.717927        -0.154609
 C        -1.533120        -0.944076         0.207891
 H        -3.584648        -1.957631         0.169641
 H        -2.572190        -0.346637         3.382038
 H        -1.319420        -1.455210         2.971444
 H        -0.929431         1.442217         2.556533
 H        -3.557985         1.664873         1.536331
 H        -2.623857         1.203406        -1.012819
 H        -1.537604         2.510973        -0.098963
 H         0.721125        -0.128220        -0.236796
 H        -2.116564        -1.013978        -0.754483
 H        -1.025944        -1.909664         0.389489
