19
Iteration:  4469charge 0 multiplicity 1
 O        -3.864065        -1.504037         1.135333
 C        -2.805390        -0.611874         1.217479
 C        -2.030714        -0.591014         2.508019
 C        -1.382443         0.686938         1.748302
 C        -2.736299         0.995974         0.986004
 C        -2.009927         1.563986        -0.222084
 C        -0.873702         0.546105         0.347247
 O         0.489738         0.651348         0.074551
 C        -1.636405        -0.836639         0.129806
 H        -4.117978        -1.649912         0.169337
 H        -2.549456        -0.404745         3.540944
 H        -1.403123        -1.551658         2.631040
 H        -1.089546         1.522505         2.321728
 H        -3.545776         1.658878         1.443715
 H        -2.497398         1.544751        -1.254710
 H        -1.904871         2.647320        -0.114272
 H         0.912481        -0.003273        -0.578075
 H        -1.844256        -0.956772        -0.891522
 H        -1.020945        -1.686062         0.480584
