19
Iteration:  1312charge 0 multiplicity 1
 O        -3.835857        -1.349202         0.794900
 C        -2.727769        -0.684826         1.228950
 C        -2.055879        -0.553977         2.604770
 C        -1.343316         0.698612         1.914722
 C        -2.659780         0.950559         1.255250
 C        -2.074614         1.387227        -0.010389
 C        -0.907125         0.443744         0.336669
 O         0.260679         0.860523        -0.364547
 C        -1.390224        -0.999805         0.307400
 H        -4.509503        -0.696634         0.677330
 H        -2.631764        -0.255858         3.441587
 H        -1.541830        -1.475486         2.815200
 H        -0.976163         1.364795         2.582247
 H        -3.448914         1.451072         1.790984
 H        -2.630874         0.984662        -0.835155
 H        -1.741237         2.422561        -0.230207
 H         0.243346         0.550026        -1.308342
 H        -1.745771        -1.319118        -0.639228
 H        -0.657511        -1.582693         0.834349
