19
Iteration:  4684charge 0 multiplicity 1
 O        -3.884780        -1.485291         1.198237
 C        -2.764288        -0.623671         1.077979
 C        -1.989809        -0.562418         2.452377
 C        -1.450181         0.743351         1.831453
 C        -2.765213         1.014024         1.031236
 C        -1.948027         1.494157        -0.145159
 C        -0.925879         0.519337         0.284425
 O         0.476995         0.643092         0.064316
 C        -1.621181        -0.878897         0.136468
 H        -4.155412        -1.599410         0.267075
 H        -2.762443        -0.546019         3.263723
 H        -1.154644        -1.203155         2.745811
 H        -0.795879         1.419468         2.334445
 H        -3.672488         1.626409         1.357884
 H        -2.328542         1.468748        -1.206420
 H        -1.618491         2.614616         0.003919
 H         0.640457         0.514348        -0.889317
 H        -1.778353        -1.055945        -0.960337
 H        -1.026729        -1.717409         0.544022
