19
Iteration:  3747charge 0 multiplicity 1
 O        -3.884451        -1.415444         1.015772
 C        -2.710968        -0.668059         1.124568
 C        -1.937129        -0.516626         2.446190
 C        -1.436576         0.742560         1.911244
 C        -2.766731         0.869416         1.113786
 C        -2.006888         1.478561        -0.165980
 C        -0.849444         0.490769         0.434124
 O         0.387508         0.679264        -0.146525
 C        -1.598360        -0.885878         0.126319
 H        -4.619301        -0.741374         1.037275
 H        -2.592287        -0.306750         3.311595
 H        -1.357498        -1.419427         2.640500
 H        -1.003103         1.615895         2.264950
 H        -3.649390         1.304131         1.591358
 H        -2.392635         1.340046        -1.177578
 H        -1.765655         2.530575         0.144617
 H         1.090729         0.549027         0.545191
 H        -1.784681        -0.942365        -0.898691
 H        -1.051970        -1.765695         0.413981
