19
Iteration:  1814
 O        -3.802399        -1.432766         0.757481
 C        -2.646068        -0.623777         1.162911
 C        -1.941423        -0.539474         2.534275
 C        -1.483669         0.855954         2.053465
 C        -2.738239         0.939111         1.196005
 C        -2.113584         1.380768        -0.037337
 C        -0.893086         0.542828         0.393138
 O         0.260968         0.527647        -0.360292
 C        -1.445179        -0.898618         0.278758
 H        -4.527720        -0.835557         0.820760
 H        -2.547796        -0.405051         3.422256
 H        -1.160566        -1.242948         2.838961
 H        -0.846025         1.640117         2.612728
 H        -3.448368         1.592507         1.801891
 H        -2.757943         1.129459        -0.878161
 H        -1.956333         2.514733         0.027649
 H         0.713592         1.398957        -0.316029
 H        -1.692645        -1.176159        -0.746479
 H        -0.730250        -1.510684         0.740816
