19
Iteration:  2627
 O        -3.967315        -1.479006         1.078842
 C        -2.734083        -0.690694         1.134188
 C        -1.999138        -0.589247         2.509000
 C        -1.406793         0.741147         1.910630
 C        -2.772017         0.943508         1.127631
 C        -1.957300         1.583620        -0.094672
 C        -0.917619         0.506849         0.398792
 O         0.364702         0.688179        -0.305180
 C        -1.458517        -0.957007         0.208057
 H        -4.159080        -1.462517         0.092916
 H        -2.697070        -0.258542         3.332186
 H        -1.344516        -1.436198         2.789500
 H        -0.965614         1.550445         2.441558
 H        -3.482338         1.495386         1.659899
 H        -2.305127         1.635974        -1.187273
 H        -1.649605         2.614092         0.202657
 H         0.834798         1.559995        -0.167399
 H        -1.537032        -1.192187        -0.874651
 H        -0.865349        -1.801820         0.677642
