19
Iteration:   693
 O        -3.762368        -1.673970         1.190097
 C        -2.750556        -0.678163         1.137736
 C        -1.915882        -0.544043         2.438466
 C        -1.390478         0.834272         1.785304
 C        -2.756915         0.992388         1.074372
 C        -1.992380         1.540241        -0.199195
 C        -0.992281         0.588597         0.310894
 O         0.387681         0.594711         0.068548
 C        -1.641795        -0.792240         0.066423
 H        -4.604299        -1.278169         1.040994
 H        -2.431216        -0.180836         3.330272
 H        -1.240973        -1.407438         2.648152
 H        -1.081473         1.678011         2.353321
 H        -3.591469         1.590667         1.585991
 H        -2.394141         1.485722        -1.166728
 H        -1.599252         2.569939         0.013778
 H         0.460113         0.546779        -0.907972
 H        -2.088814        -0.919013        -0.925271
 H        -0.895845        -1.603365         0.203046
