19
Iteration:  1969
 O        -3.823804        -1.550676         0.926833
 C        -2.757643        -0.606485         1.221660
 C        -2.072945        -0.421095         2.589818
 C        -1.503950         0.820541         1.979843
 C        -2.737797         1.014756         1.098463
 C        -1.897576         1.419837        -0.156426
 C        -0.869443         0.422574         0.380731
 O         0.334907         0.737621        -0.344134
 C        -1.500486        -0.882645         0.236375
 H        -3.945652        -2.175647         1.710368
 H        -2.949581        -0.167763         3.192856
 H        -1.512492        -1.249749         2.966994
 H        -1.040506         1.712056         2.370837
 H        -3.625579         1.470766         1.452622
 H        -2.302590         1.179561        -1.138346
 H        -1.539179         2.447557         0.006559
 H         0.840322        -0.084824        -0.416768
 H        -1.800949        -1.164130        -0.733639
 H        -0.975218        -1.642832         0.717876
