19
Iteration:  3055
 O        -3.787740        -1.600905         1.215325
 C        -2.794883        -0.646837         1.140653
 C        -2.014022        -0.495511         2.373558
 C        -1.309335         0.717840         1.737802
 C        -2.732287         1.048346         1.056867
 C        -2.006826         1.561846        -0.147721
 C        -0.955213         0.510565         0.323468
 O         0.402939         0.650725         0.008393
 C        -1.690069        -0.883676         0.071421
 H        -3.814723        -2.112510         0.403599
 H        -2.784572        -0.288181         3.127163
 H        -1.558758        -1.467749         2.702542
 H        -0.804263         1.543828         2.304703
 H        -3.288245         1.656211         1.833963
 H        -2.489232         1.507183        -1.149763
 H        -1.631317         2.592956         0.099279
 H         0.728072         1.199815         0.744004
 H        -1.943606        -1.020507        -1.053532
 H        -0.977257        -1.646698         0.408584
