19
Iteration:   139charge 0 multiplicity 1
 O        -4.003288        -1.201739         0.993196
 C        -2.694221        -0.665249         1.219065
 C        -1.919583        -0.603852         2.498435
 C        -1.350789         0.813582         1.855946
 C        -2.681986         0.900214         1.127328
 C        -2.118070         1.248673        -0.171426
 C        -0.859911         0.410955         0.368239
 O         0.347202         0.872494        -0.181714
 C        -1.464592        -1.034197         0.289382
 H        -3.947577        -1.905767         0.257278
 H        -2.578009        -0.475952         3.388449
 H        -1.269197        -1.482042         2.801604
 H        -0.897622         1.615848         2.496094
 H        -3.469939         1.419731         1.561341
 H        -2.616261         0.987215        -1.198392
 H        -1.866941         2.290583        -0.310435
 H        -0.020951         1.747267        -0.469795
 H        -1.771630        -1.423565        -0.713783
 H        -0.746634        -1.818222         0.633666
