19
Iteration:  2803charge 0 multiplicity 1
 O        -3.859652        -1.321343         0.887532
 C        -2.704863        -0.639650         1.146223
 C        -1.932342        -0.530132         2.546152
 C        -1.365444         0.801608         2.024167
 C        -2.802262         0.905661         1.186149
 C        -2.063795         1.388240        -0.043734
 C        -0.907982         0.489360         0.391321
 O         0.395848         0.613209        -0.277460
 C        -1.580304        -0.884535         0.142616
 H        -3.741604        -2.245564         0.502495
 H        -2.715373        -0.380374         3.332151
 H        -1.394553        -1.434114         2.916162
 H        -0.958714         1.614182         2.607825
 H        -3.735691         1.336638         1.575150
 H        -2.524618         0.977375        -0.978531
 H        -1.777199         2.470124         0.002418
 H         0.435539         1.615134        -0.291743
 H        -1.803587        -0.831777        -0.924352
 H        -0.829525        -1.638776         0.447673
