19
Iteration:   622charge 0 multiplicity 1
 O        -3.904250        -1.325231         0.892849
 C        -2.668840        -0.622825         1.201530
 C        -1.866329        -0.589615         2.531705
 C        -1.351536         0.707904         1.863503
 C        -2.752982         0.958260         1.228559
 C        -2.164934         1.285966        -0.095745
 C        -0.887677         0.456868         0.320170
 O         0.355216         0.897820        -0.159143
 C        -1.511623        -1.006079         0.222205
 H        -4.546272        -0.654121         0.788568
 H        -2.473423        -0.423000         3.477791
 H        -1.195059        -1.448219         2.683280
 H        -0.986991         1.617828         2.458422
 H        -3.566832         1.316503         1.843415
 H        -2.707046         0.971067        -1.083760
 H        -1.794131         2.294786        -0.224922
 H         0.340553         0.718030        -1.114456
 H        -1.641609        -1.453840        -0.814534
 H        -0.945643        -1.859872         0.654416
