19
Iteration:   929charge 0 multiplicity 1
 O        -3.872242        -1.420032         1.144322
 C        -2.689694        -0.640297         1.179164
 C        -1.811546        -0.582911         2.427713
 C        -1.377527         0.778209         1.817004
 C        -2.723825         0.925476         1.089137
 C        -2.099320         1.473398        -0.201708
 C        -0.949244         0.482165         0.356125
 O         0.394114         0.734354         0.079019
 C        -1.681805        -0.907202         0.089091
 H        -4.189545        -1.556905         0.246536
 H        -2.262332        -0.484013         3.441814
 H        -1.038612        -1.368608         2.267919
 H        -0.955548         1.581255         2.330324
 H        -3.736417         1.360377         1.390641
 H        -2.541176         1.280069        -1.159422
 H        -1.735664         2.515159        -0.089604
 H         0.638920         0.539404        -0.826510
 H        -2.213503        -0.941501        -0.909707
 H        -1.070443        -1.778423         0.345633
