19
Iteration:  2089
 O        -3.863664        -1.435965         1.352039
 C        -2.667292        -0.718637         1.034393
 C        -1.972106        -0.468458         2.404051
 C        -1.590525         0.870403         1.797512
 C        -2.893118         0.878241         0.946752
 C        -2.015878         1.584554        -0.136040
 C        -0.898388         0.560217         0.312968
 O         0.525036         0.544006        -0.048867
 C        -1.561898        -0.926065         0.003470
 H        -3.492333        -2.173582         1.831310
 H        -2.684521        -0.406537         3.215335
 H        -1.363558        -1.319834         2.686640
 H        -1.356537         1.866636         2.324239
 H        -3.782654         1.442170         1.293938
 H        -2.254498         1.568422        -1.197488
 H        -1.777279         2.552134         0.315709
 H         1.053333         0.475508         0.804639
 H        -1.701303        -0.967960        -1.081572
 H        -0.786710        -1.611678         0.265721
