19
Iteration:  4489
 O        -3.823871        -1.542177         1.185849
 C        -2.741896        -0.584880         1.084849
 C        -1.913709        -0.514293         2.342703
 C        -1.456494         0.839625         1.839610
 C        -2.808679         1.041452         1.089945
 C        -1.951537         1.464020        -0.165648
 C        -0.953312         0.436979         0.315395
 O         0.490641         0.649070         0.183038
 C        -1.715747        -0.881751         0.019281
 H        -4.436235        -1.666321         0.418326
 H        -2.607309        -0.236141         3.210128
 H        -1.178301        -1.309240         2.542380
 H        -0.801102         1.506209         2.375786
 H        -3.695933         1.671999         1.509315
 H        -2.189206         1.333667        -1.197725
 H        -1.526285         2.498709        -0.128329
 H         0.940684         0.178213        -0.540074
 H        -2.158796        -0.915193        -0.986442
 H        -1.268411        -1.867403         0.269303
