19
Iteration:   461charge 0 multiplicity 1
 O        -3.789988        -1.383179         0.879584
 C        -2.723187        -0.633082         1.191496
 C        -2.042795        -0.590744         2.602849
 C        -1.360490         0.656732         1.877945
 C        -2.734568         0.988670         1.287195
 C        -2.095482         1.425621        -0.000704
 C        -0.886285         0.443098         0.326207
 O         0.309683         0.731497        -0.384995
 C        -1.514746        -0.881469         0.253305
 H        -3.790795        -1.666473        -0.049440
 H        -2.645581        -0.125907         3.427230
 H        -1.480834        -1.456262         2.962540
 H        -0.838344         1.585253         2.309474
 H        -3.483472         1.379246         2.142941
 H        -2.740772         1.303512        -0.871866
 H        -1.669697         2.434109        -0.123992
 H         0.440622         1.678808        -0.484225
 H        -1.683383        -1.401985        -0.669547
 H        -0.884464        -1.693028         0.646654
