19
Iteration:  2273charge 0 multiplicity 1
 O        -3.813399        -1.501177         1.221495
 C        -2.725192        -0.608704         1.123275
 C        -1.828271        -0.533186         2.419254
 C        -1.512975         0.874238         1.850615
 C        -2.860446         0.924211         0.949532
 C        -2.017933         1.481317        -0.220631
 C        -0.928869         0.570050         0.360159
 O         0.399459         0.451000        -0.003497
 C        -1.573186        -0.803759         0.138321
 H        -4.237367        -1.608890         0.323813
 H        -2.469223        -0.366659         3.308251
 H        -0.968794        -1.220815         2.653418
 H        -1.151599         1.750348         2.425210
 H        -3.775072         1.482149         1.222111
 H        -2.439158         1.239622        -1.201149
 H        -1.939752         2.577454        -0.010440
 H         0.775340         1.227595         0.494804
 H        -1.730526        -1.065744        -0.953555
 H        -0.829670        -1.554868         0.480567
