19
Iteration:  2647
 O        -3.887520        -1.316997         0.941901
 C        -2.654606        -0.612251         1.145263
 C        -1.977519        -0.583576         2.485047
 C        -1.470910         0.758983         2.040081
 C        -2.795213         0.904809         1.219824
 C        -2.034896         1.415900        -0.013306
 C        -0.864192         0.487596         0.305263
 O         0.335562         0.570741        -0.325488
 C        -1.434233        -0.797419         0.264108
 H        -3.965027        -1.836666         0.163330
 H        -2.750426        -0.499019         3.288605
 H        -1.211957        -1.349348         2.729308
 H        -1.084043         1.547602         2.643145
 H        -3.759665         1.274192         1.382153
 H        -2.406972         1.124936        -1.063989
 H        -1.837110         2.517917         0.156023
 H         0.390624         1.471133        -0.706810
 H        -1.821763        -1.115939        -0.737513
 H        -0.694258        -1.565065         0.598189
