19
Iteration:   329charge 0 multiplicity 1
 O        -3.842172        -1.465282         0.930800
 C        -2.687220        -0.674178         1.186017
 C        -1.948089        -0.590473         2.553855
 C        -1.397923         0.721608         1.993514
 C        -2.725374         0.933072         1.236165
 C        -2.095499         1.523235         0.006570
 C        -0.968714         0.563545         0.276732
 O         0.283645         0.550808        -0.342664
 C        -1.464247        -0.779781         0.205894
 H        -3.982637        -1.278605         0.010252
 H        -2.638160        -0.478952         3.416482
 H        -1.231683        -1.376584         2.794958
 H        -0.919421         1.592048         2.484159
 H        -3.745752         1.358399         1.658674
 H        -2.499670         1.458805        -1.066293
 H        -1.600255         2.537676         0.131296
 H         0.720997         1.405369        -0.320553
 H        -1.790772        -0.949722        -0.852868
 H        -0.687668        -1.494023         0.496635
