19
Iteration:  1005charge 0 multiplicity 1
 O        -3.857075        -1.613038         1.075435
 C        -2.771016        -0.617724         1.158781
 C        -1.995775        -0.481330         2.494455
 C        -1.368221         0.787752         1.961278
 C        -2.732803         1.009081         1.180336
 C        -1.968591         1.514532        -0.052208
 C        -0.857686         0.461637         0.338283
 O         0.294790         0.682699        -0.322512
 C        -1.564105        -0.912218         0.138599
 H        -4.166684        -1.728650         0.115401
 H        -2.663538        -0.344841         3.357914
 H        -1.386579        -1.331168         2.843591
 H        -0.869508         1.552116         2.476497
 H        -3.558977         1.633113         1.687373
 H        -2.473717         1.504214        -1.014807
 H        -1.703458         2.567681         0.079528
 H         1.011704         1.204446         0.085003
 H        -1.857141        -0.989309        -0.928017
 H        -0.991468        -1.812360         0.285141
