19
Iteration:  1676
 O        -3.888242        -1.311277         0.932161
 C        -2.786336        -0.605092         1.201342
 C        -2.034590        -0.561822         2.574494
 C        -1.305200         0.710702         1.885753
 C        -2.751115         0.960849         1.142101
 C        -2.064047         1.291769        -0.173426
 C        -0.891172         0.488929         0.346496
 O         0.376324         0.773049        -0.283272
 C        -1.502367        -0.942379         0.321759
 H        -3.681393        -2.288724         0.860746
 H        -2.626921        -0.125374         3.420725
 H        -1.353046        -1.371955         2.908696
 H        -0.876454         1.437293         2.544380
 H        -3.453146         1.573388         1.639374
 H        -2.401186         0.810096        -1.146538
 H        -1.854978         2.363266        -0.286243
 H         0.359660         1.773205        -0.425476
 H        -1.787632        -1.393937        -0.683616
 H        -0.870628        -1.755977         0.865628
