19
Iteration:  2798charge 0 multiplicity 1
 O        -3.842588        -1.375415         0.862897
 C        -2.703601        -0.592304         1.154673
 C        -1.950319        -0.508705         2.495020
 C        -1.318280         0.768727         1.979935
 C        -2.765190         0.961774         1.216335
 C        -2.105341         1.373317        -0.069764
 C        -0.939060         0.476328         0.406717
 O         0.376422         0.608060        -0.230596
 C        -1.570048        -0.868564         0.154252
 H        -3.685393        -2.268736         0.641315
 H        -2.616924        -0.218606         3.318051
 H        -1.403904        -1.404978         2.794552
 H        -0.810435         1.538103         2.608804
 H        -3.701448         1.369576         1.616579
 H        -2.613230         1.093110        -1.007017
 H        -1.885161         2.433712         0.050410
 H         0.494589         1.546679        -0.100111
 H        -1.887009        -0.887746        -0.912679
 H        -0.960336        -1.731764         0.490538
