19
Iteration:  3047charge 0 multiplicity 1
 O        -3.769889        -1.592776         1.184205
 C        -2.764535        -0.642856         1.104838
 C        -2.068351        -0.548644         2.445960
 C        -1.358651         0.719151         1.800703
 C        -2.764940         1.018877         1.085441
 C        -1.899230         1.598633        -0.127054
 C        -0.946644         0.453585         0.324283
 O         0.401717         0.677147        -0.095084
 C        -1.696126        -0.862467         0.117479
 H        -3.662193        -2.237081         0.448818
 H        -2.698765        -0.059014         3.195091
 H        -1.517468        -1.412897         2.851420
 H        -0.844649         1.539142         2.288731
 H        -3.538251         1.608153         1.535134
 H        -2.427068         1.530569        -1.125704
 H        -1.519845         2.692168        -0.057791
 H         0.639797         1.370999         0.569108
 H        -2.110803        -0.926546        -0.885663
 H        -1.198160        -1.780452         0.407118
