19
Iteration:  2411charge 0 multiplicity 1
 O        -3.697883        -1.664854         1.315708
 C        -2.782504        -0.651019         1.069752
 C        -2.026150        -0.530081         2.362995
 C        -1.386205         0.760674         1.743302
 C        -2.737135         1.139771         1.037100
 C        -1.945226         1.620609        -0.168551
 C        -0.907153         0.503285         0.294473
 O         0.467016         0.627096         0.080872
 C        -1.846409        -0.952857         0.026135
 H        -4.190831        -1.888899         0.487233
 H        -2.828643        -0.235856         3.034645
 H        -1.501598        -1.356302         2.751267
 H        -0.984004         1.540900         2.287010
 H        -3.484778         1.644285         1.572223
 H        -2.440938         1.611569        -1.130872
 H        -1.349153         2.495708         0.084565
 H         0.674592         1.313700         0.708866
 H        -2.164804        -0.875241        -0.968776
 H        -1.210137        -1.822530         0.124577
