19
Iteration:  4105
 O        -3.914922        -1.301280         0.790727
 C        -2.671604        -0.653611         1.166940
 C        -1.981912        -0.618928         2.583391
 C        -1.345361         0.721321         1.977660
 C        -2.728868         1.000888         1.221678
 C        -2.031797         1.458328        -0.109204
 C        -0.910886         0.486344         0.374449
 O         0.288760         0.706026        -0.181357
 C        -1.530962        -0.883679         0.168831
 H        -3.741816        -1.991619         0.139475
 H        -2.582328        -0.401168         3.486591
 H        -1.300998        -1.473586         2.795476
 H        -0.838071         1.517124         2.626346
 H        -3.563268         1.499268         1.769871
 H        -2.587283         1.261855        -1.005178
 H        -1.657411         2.512836        -0.055983
 H         0.780717        -0.116581        -0.122212
 H        -1.809254        -1.059939        -0.836188
 H        -1.022608        -1.820120         0.511222
