19
Iteration:  1534
 O        -3.789360        -1.600649         1.084744
 C        -2.740851        -0.625182         1.203793
 C        -1.970819        -0.451695         2.510298
 C        -1.436561         0.812753         1.846384
 C        -2.768816         0.985841         1.037541
 C        -2.009677         1.434374        -0.206503
 C        -0.958400         0.529150         0.335616
 O         0.378868         0.726684        -0.168604
 C        -1.561772        -0.931472         0.185668
 H        -4.690534        -1.257136         1.296464
 H        -2.631929        -0.161679         3.343333
 H        -1.193330        -1.157097         2.781688
 H        -0.904185         1.623548         2.375806
 H        -3.639663         1.512257         1.495645
 H        -2.250458         1.197307        -1.268913
 H        -1.690936         2.464258        -0.001029
 H         1.019946         0.105408         0.241501
 H        -1.956996        -1.161715        -0.834272
 H        -0.882174        -1.709882         0.621571
