19
Iteration:  4580
 O        -3.806256        -1.370417         1.006228
 C        -2.738005        -0.590497         1.097079
 C        -2.085152        -0.509379         2.584646
 C        -1.380960         0.724692         1.919980
 C        -2.662058         0.953050         1.122010
 C        -2.046782         1.442297        -0.164875
 C        -0.873276         0.366042         0.331482
 O         0.396013         0.742966        -0.046554
 C        -1.623216        -0.932509         0.160259
 H        -3.969428        -1.651833         0.125134
 H        -2.876277        -0.106820         3.236592
 H        -1.504224        -1.480754         2.872352
 H        -0.812395         1.547166         2.380513
 H        -3.418810         1.503147         1.610307
 H        -2.430139         1.275649        -1.216571
 H        -1.670367         2.428297        -0.087398
 H         0.526781         0.599320        -0.956619
 H        -2.107736        -1.229034        -0.744422
 H        -1.007858        -1.767179         0.499028
