19
Iteration:  2414
 O        -3.683635        -1.635075         1.301645
 C        -2.813654        -0.657302         1.063030
 C        -2.014094        -0.530478         2.363642
 C        -1.392108         0.712552         1.753963
 C        -2.715436         1.145883         1.018750
 C        -1.981527         1.624546        -0.180487
 C        -0.898804         0.507961         0.307418
 O         0.459865         0.627439         0.094570
 C        -1.825269        -0.965610         0.041322
 H        -4.285550        -1.934251         0.537274
 H        -2.830675        -0.257483         3.055840
 H        -1.375581        -1.363608         2.782419
 H        -0.918995         1.556288         2.345403
 H        -3.474596         1.809685         1.568959
 H        -2.564046         1.566899        -1.139832
 H        -1.369413         2.555562         0.053771
 H         0.742096         1.406743         0.640591
 H        -2.180852        -0.884724        -1.017487
 H        -1.214918        -1.876411         0.100625
