19
Iteration:   787charge 0 multiplicity 1
 O        -3.976209        -1.209937         0.996392
 C        -2.727042        -0.692906         1.096694
 C        -1.900058        -0.567705         2.499553
 C        -1.405640         0.731166         1.898356
 C        -2.748906         0.892140         1.136578
 C        -2.052573         1.275328        -0.132548
 C        -0.880786         0.426555         0.411404
 O         0.365031         1.002527        -0.197202
 C        -1.520264        -1.093139         0.145016
 H        -4.118096        -1.698995         1.818113
 H        -2.566668        -0.321452         3.367060
 H        -1.214988        -1.426090         2.556266
 H        -0.866273         1.550848         2.334135
 H        -3.685545         1.316874         1.592241
 H        -2.415561         0.886885        -1.118630
 H        -1.656376         2.319640        -0.208210
 H         1.114462         0.635979         0.269650
 H        -1.780849        -1.120068        -0.954051
 H        -0.966596        -1.946524         0.556468
