19
Iteration:  2220charge 0 multiplicity 1
 O        -3.729837        -1.620085         1.239896
 C        -2.739414        -0.643702         1.165682
 C        -2.024950        -0.444925         2.478018
 C        -1.414182         0.785379         1.773336
 C        -2.796626         1.056067         1.030318
 C        -1.991469         1.538392        -0.261380
 C        -0.956494         0.478999         0.352211
 O         0.391704         0.647715         0.026035
 C        -1.666883        -0.850716         0.045342
 H        -3.828433        -2.228068         0.458437
 H        -2.642558        -0.026936         3.262519
 H        -1.257872        -1.165392         2.785314
 H        -0.744600         1.631425         2.217989
 H        -3.653645         1.618534         1.545997
 H        -2.318728         1.406954        -1.299522
 H        -1.541352         2.522633        -0.261969
 H         0.768938        -0.158466         0.470765
 H        -2.132805        -0.923428        -0.948796
 H        -0.912347        -1.634781         0.192323
