19
Iteration:  2444charge 0 multiplicity 1
 O        -3.899986        -1.437979         1.137999
 C        -2.734397        -0.658970         1.144013
 C        -1.843785        -0.581597         2.405384
 C        -1.400373         0.840512         1.825597
 C        -2.821001         0.931762         1.113202
 C        -2.043574         1.404315        -0.167058
 C        -0.942162         0.563664         0.353881
 O         0.423178         0.543177         0.018254
 C        -1.576755        -0.811526         0.100297
 H        -4.326521        -1.392334         0.302677
 H        -2.578700        -0.496027         3.205365
 H        -1.162481        -1.366556         2.637678
 H        -1.088031         1.725673         2.305232
 H        -3.697221         1.390452         1.536715
 H        -2.465578         1.245223        -1.159910
 H        -1.678761         2.441849        -0.214709
 H         0.844661         1.427951        -0.062934
 H        -1.834083        -0.855653        -0.935095
 H        -0.791972        -1.552752         0.263629
