19
Iteration:  4519charge 0 multiplicity 1
 O        -3.867988        -1.389855         1.184453
 C        -2.644760        -0.684195         1.146348
 C        -1.885907        -0.560687         2.424618
 C        -1.501783         0.772770         1.786024
 C        -2.845840         0.920370         1.007535
 C        -2.055865         1.546672        -0.227126
 C        -0.949958         0.513238         0.342081
 O         0.476999         0.521134         0.179585
 C        -1.570641        -0.809394         0.057636
 H        -4.461437        -1.277637         0.457912
 H        -2.448246        -0.391925         3.321530
 H        -1.208615        -1.309287         2.715187
 H        -0.886119         1.531848         2.339282
 H        -3.790958         1.361798         1.419127
 H        -2.282561         1.491101        -1.291516
 H        -1.733978         2.624015        -0.052485
 H         0.831831         0.503662        -0.705393
 H        -2.185012        -0.846719        -0.910989
 H        -0.871123        -1.659508         0.126141
