19
Iteration:  2554charge 0 multiplicity 1
 O        -3.842044        -1.444001         1.232602
 C        -2.691249        -0.630797         1.106549
 C        -1.682824        -0.579922         2.405488
 C        -1.410935         0.809492         1.796480
 C        -2.938726         0.964719         0.953608
 C        -2.116493         1.597921        -0.141290
 C        -0.965710         0.540556         0.352985
 O         0.374427         0.440369         0.099369
 C        -1.603088        -0.843383         0.026187
 H        -4.225248        -1.650195         0.307987
 H        -2.304942        -0.544215         3.283384
 H        -0.851610        -1.264460         2.482358
 H        -0.874221         1.468339         2.545947
 H        -4.017530         1.314096         1.278634
 H        -2.199528         1.680228        -1.212466
 H        -1.985227         2.561919         0.356517
 H         0.874136         1.265869         0.186221
 H        -1.886619        -0.903795        -1.018352
 H        -0.894000        -1.663279         0.159778
