19
Iteration:  2482
 O        -3.877538        -1.325526         0.877152
 C        -2.638889        -0.680421         1.175687
 C        -1.949120        -0.555385         2.606606
 C        -1.461502         0.815008         1.955833
 C        -2.750739         0.954025         1.225597
 C        -2.067204         1.375758        -0.114495
 C        -0.986761         0.481233         0.254907
 O         0.336095         0.624792        -0.251880
 C        -1.420665        -0.949821         0.268836
 H        -4.071201        -1.137895        -0.065778
 H        -2.728436        -0.278712         3.361237
 H        -1.263851        -1.391848         2.980187
 H        -0.932979         1.725807         2.412637
 H        -3.614134         1.566272         1.632631
 H        -2.659340         1.200001        -1.050963
 H        -1.533541         2.351507         0.064721
 H         0.625637         1.529491        -0.186437
 H        -1.843966        -1.406098        -0.690495
 H        -0.769571        -1.718845         0.727646
