19
Iteration:   810charge 0 multiplicity 1
 O        -4.054034        -1.116776         1.035837
 C        -2.657621        -0.711359         1.169663
 C        -1.987503        -0.633147         2.593035
 C        -1.312649         0.596232         1.874640
 C        -2.645025         0.871400         1.092946
 C        -2.096438         1.252136        -0.237507
 C        -0.911170         0.443519         0.264769
 O         0.257702         1.008709        -0.155088
 C        -1.381254        -0.955516         0.208241
 H        -4.001749        -2.113264         0.854405
 H        -2.766276        -0.275407         3.272157
 H        -1.271868        -1.409315         2.885646
 H        -0.806426         1.370911         2.326526
 H        -3.506192         1.370391         1.667865
 H        -2.553086         0.959912        -1.199967
 H        -1.700814         2.336302        -0.200623
 H         1.015366         0.629720         0.373609
 H        -1.785450        -1.313707        -0.760061
 H        -0.743818        -1.646326         0.762563
