19
Iteration:   901charge 0 multiplicity 1
 O        -3.773703        -1.750141         1.408779
 C        -2.751765        -0.629455         1.061363
 C        -1.938424        -0.469648         2.366156
 C        -1.444584         0.749990         1.747874
 C        -2.816758         1.076282         1.125962
 C        -1.989563         1.670218        -0.121023
 C        -0.919748         0.523590         0.312589
 O         0.474678         0.620504         0.089156
 C        -1.690860        -0.812062        -0.164779
 H        -4.366130        -1.981889         0.623632
 H        -2.737813        -0.201084         3.031149
 H        -1.268726        -1.259101         2.656151
 H        -0.961759         1.600977         2.354832
 H        -3.602977         1.628480         1.570017
 H        -2.297154         1.494064        -1.181255
 H        -1.540216         2.685018         0.073823
 H         0.798428        -0.170824        -0.333590
 H        -2.172112        -0.759680        -1.120808
 H        -1.192311        -1.754275         0.109613
