19
Iteration:  2665charge 0 multiplicity 1
 O        -3.794570        -1.289927         0.834604
 C        -2.663367        -0.653588         1.225321
 C        -1.940037        -0.637042         2.650381
 C        -1.437515         0.789001         1.981467
 C        -2.692169         0.990608         1.185883
 C        -2.170406         1.476567        -0.163173
 C        -0.917702         0.556356         0.423455
 O         0.369429         0.576789        -0.237221
 C        -1.597616        -0.955236         0.134718
 H        -3.573985        -2.032795         0.319759
 H        -2.569407        -0.526595         3.509802
 H        -1.272806        -1.469859         2.889717
 H        -0.963071         1.595839         2.653977
 H        -3.648523         1.368999         1.821767
 H        -2.701961         1.069274        -0.979987
 H        -1.776987         2.472832        -0.100469
 H         0.423335         1.406964        -0.736033
 H        -1.881277        -0.986381        -0.926393
 H        -0.957710        -1.766324         0.400432
