19
Iteration:  3621
 O        -3.966796        -1.303149         0.968111
 C        -2.741613        -0.604309         1.209633
 C        -1.945047        -0.616111         2.555984
 C        -1.458605         0.790139         1.876899
 C        -2.718560         0.984028         1.107819
 C        -2.001813         1.351445        -0.219389
 C        -0.902820         0.478229         0.317001
 O         0.438481         0.743554        -0.023808
 C        -1.569344        -0.992796         0.172191
 H        -3.853613        -2.190476         0.549923
 H        -2.402154        -0.250106         3.439674
 H        -1.250018        -1.420023         2.716377
 H        -0.892526         1.469303         2.517256
 H        -3.525060         1.492122         1.622882
 H        -2.489645         1.171966        -1.188089
 H        -1.575070         2.322953        -0.238242
 H         0.508207         1.263228        -0.882940
 H        -1.865007        -1.340702        -0.863959
 H        -0.905122        -1.725827         0.652785
