19
Iteration:  1244
 O        -3.863681        -1.506688         1.200274
 C        -2.718383        -0.627474         1.084562
 C        -1.838015        -0.649823         2.357262
 C        -1.419894         0.670620         1.841796
 C        -2.794600         0.985252         1.045363
 C        -1.990968         1.580357        -0.096281
 C        -0.956335         0.520162         0.300650
 O         0.415399         0.742072         0.067271
 C        -1.730924        -0.831877        -0.101636
 H        -3.847181        -1.767425         2.181993
 H        -2.233456        -0.487317         3.323771
 H        -1.019160        -1.342438         2.338386
 H        -0.807744         1.486456         2.347767
 H        -3.667796         1.474577         1.544158
 H        -2.475912         1.429027        -1.052638
 H        -1.715178         2.593252         0.060049
 H         0.880985         0.015013         0.500123
 H        -2.185594        -0.728058        -1.068904
 H        -1.122884        -1.683864         0.031743
