19
Iteration:  1674charge 0 multiplicity 1
 O        -3.907869        -1.306418         0.946593
 C        -2.788833        -0.597376         1.194347
 C        -2.038627        -0.577880         2.578776
 C        -1.328903         0.693689         1.876454
 C        -2.736639         0.958246         1.140362
 C        -2.039313         1.268094        -0.181721
 C        -0.879719         0.498234         0.344976
 O         0.384538         0.792628        -0.288497
 C        -1.485042        -0.949653         0.321617
 H        -3.745738        -2.233874         0.862137
 H        -2.603542        -0.134671         3.413518
 H        -1.345136        -1.366506         2.908313
 H        -0.830570         1.473208         2.550700
 H        -3.492852         1.612338         1.652504
 H        -2.453236         0.782234        -1.060861
 H        -1.882145         2.349126        -0.291334
 H         0.195396         1.788800        -0.412230
 H        -1.719074        -1.351397        -0.677505
 H        -0.937503        -1.694836         0.888797
