19
Iteration:  3303
 O        -3.738029        -1.486418         0.904146
 C        -2.677175        -0.598460         1.233199
 C        -2.011508        -0.518343         2.581831
 C        -1.453262         0.810345         2.007250
 C        -2.768071         0.962995         1.126491
 C        -2.049066         1.462859        -0.149466
 C        -0.980762         0.540320         0.366582
 O         0.425186         0.586754        -0.216249
 C        -1.587796        -0.839880         0.161369
 H        -4.043120        -1.154057         0.031097
 H        -2.736058        -0.277836         3.377960
 H        -1.345598        -1.353313         2.834358
 H        -0.939967         1.611246         2.573946
 H        -3.684959         1.509551         1.588766
 H        -2.504511         1.312916        -1.192258
 H        -1.802492         2.514421         0.094649
 H         0.510647        -0.398070        -0.369026
 H        -1.962092        -1.131098        -0.777653
 H        -0.899986        -1.557823         0.574218
