19
Iteration:  3341
 O        -3.890551        -1.438743         1.118078
 C        -2.750863        -0.634538         1.111877
 C        -1.997605        -0.569179         2.409838
 C        -1.320251         0.766206         1.847677
 C        -2.783481         0.937263         1.085564
 C        -1.999592         1.399498        -0.132066
 C        -0.868990         0.481609         0.298132
 O         0.390943         0.834149        -0.035202
 C        -1.620903        -0.996968         0.124336
 H        -4.497634        -1.064425         0.405670
 H        -2.670095        -0.231297         3.230208
 H        -1.222230        -1.343235         2.676399
 H        -0.934456         1.541047         2.545532
 H        -3.582873         1.472566         1.498018
 H        -2.330590         1.408245        -1.138488
 H        -1.584316         2.412592         0.023885
 H         1.101490         0.499813         0.568203
 H        -1.985247        -1.279615        -0.930186
 H        -0.953460        -1.828753         0.521129
