19
Iteration:  1842charge 0 multiplicity 1
 O        -3.749405        -1.430764         0.692881
 C        -2.660968        -0.602138         1.280410
 C        -2.028611        -0.547816         2.697650
 C        -1.376605         0.724068         1.936479
 C        -2.779213         0.973400         1.143614
 C        -2.053192         1.488899        -0.084144
 C        -0.944967         0.535463         0.350798
 O         0.309170         0.563340        -0.306702
 C        -1.573678        -0.862299         0.294347
 H        -3.907237        -2.107290         1.324034
 H        -2.523454        -0.131674         3.612568
 H        -1.335789        -1.373368         2.976415
 H        -0.736970         1.426230         2.442279
 H        -3.529504         1.470527         1.747204
 H        -2.619507         1.459661        -1.045808
 H        -1.656928         2.489082        -0.026949
 H         0.362214         1.443534        -0.764001
 H        -2.047198        -1.190245        -0.670457
 H        -0.707233        -1.608440         0.451778
