19
Iteration:   812charge 0 multiplicity 1
 O        -4.041013        -1.122832         1.037656
 C        -2.670628        -0.712152         1.150098
 C        -1.984960        -0.619227         2.610502
 C        -1.323145         0.585956         1.868731
 C        -2.645393         0.862796         1.110694
 C        -2.106064         1.255762        -0.240606
 C        -0.930957         0.445553         0.266504
 O         0.283541         1.006592        -0.159495
 C        -1.393062        -0.946909         0.213699
 H        -3.988722        -2.106925         0.766522
 H        -2.726359        -0.286752         3.275339
 H        -1.296720        -1.402908         2.840055
 H        -0.780629         1.383722         2.263481
 H        -3.477790         1.380820         1.702483
 H        -2.526770         0.956498        -1.197549
 H        -1.691591         2.330522        -0.223652
 H         0.986471         0.587949         0.370884
 H        -1.748687        -1.302600        -0.723362
 H        -0.741022        -1.602836         0.784152
