19
Iteration:  2575charge 0 multiplicity 1
 O        -3.828686        -1.467157         1.230055
 C        -2.671100        -0.655521         1.093851
 C        -1.773925        -0.608369         2.326494
 C        -1.488034         0.874206         1.741958
 C        -2.784952         0.956590         1.135867
 C        -2.150415         1.534054        -0.228211
 C        -0.969485         0.576527         0.288519
 O         0.453903         0.431316         0.178075
 C        -1.657423        -0.763635         0.013751
 H        -4.398585        -1.407177         0.447258
 H        -2.153059        -0.676605         3.342207
 H        -0.958757        -1.299803         2.176794
 H        -1.170952         1.791459         2.276800
 H        -3.559797         1.256059         1.894940
 H        -2.613430         1.140025        -1.094632
 H        -1.914485         2.568940        -0.227984
 H         0.932555         1.064637         0.777267
 H        -2.063683        -0.747548        -0.981086
 H        -0.909717        -1.572779         0.072149
