19
Iteration:  3084
 O        -3.822445        -1.413265         1.167061
 C        -2.669425        -0.705619         1.141351
 C        -1.734810        -0.574208         2.413340
 C        -1.477794         0.855715         1.813916
 C        -2.879288         0.924448         1.022429
 C        -2.131143         1.495644        -0.192659
 C        -0.964575         0.535283         0.366049
 O         0.465659         0.523254         0.071015
 C        -1.638193        -0.822210         0.036120
 H        -4.452124        -0.992566         0.486885
 H        -2.417491        -0.717479         3.281726
 H        -0.949377        -1.336415         2.419684
 H        -1.098195         1.777941         2.292911
 H        -3.766818         1.316691         1.603850
 H        -2.564456         1.124599        -1.123943
 H        -1.960302         2.535222        -0.227699
 H         0.922114         1.005096         0.840590
 H        -1.893587        -0.797216        -1.019039
 H        -0.916599        -1.673071         0.107427
