19
Iteration:  4881charge 0 multiplicity 1
 O        -3.974025        -1.288078         1.053007
 C        -2.702535        -0.661403         1.123979
 C        -1.970531        -0.592372         2.523840
 C        -1.419131         0.727563         1.926669
 C        -2.763708         0.945651         1.041068
 C        -1.975301         1.484941        -0.184224
 C        -0.942996         0.511784         0.366120
 O         0.350018         0.715812        -0.079387
 C        -1.427384        -0.934418         0.136469
 H        -3.868090        -2.054904         0.493367
 H        -2.744713        -0.401283         3.350849
 H        -1.371318        -1.482493         2.807123
 H        -0.878134         1.429402         2.527561
 H        -3.699309         1.404154         1.424282
 H        -2.392875         1.326861        -1.155292
 H        -1.881805         2.559883         0.056909
 H         0.740767         0.020757        -0.566817
 H        -1.490606        -1.387143        -0.834244
 H        -0.768122        -1.507516         0.783962
