19
Iteration:    47
 O        -3.552409        -1.878842         1.181105
 C        -2.720739        -0.686274         1.123456
 C        -2.039941        -0.421361         2.415451
 C        -1.533562         0.904605         1.897071
 C        -2.785416         1.190414         1.048332
 C        -1.920593         1.652233        -0.105831
 C        -0.979053         0.525492         0.343711
 O         0.356802         0.441167        -0.130127
 C        -1.722204        -0.709093         0.032963
 H        -4.407988        -1.640602         1.442448
 H        -2.598132        -0.351017         3.374439
 H        -1.347599        -1.254116         2.555992
 H        -1.133775         1.726380         2.430637
 H        -3.634548         1.779762         1.570511
 H        -2.247453         1.712220        -1.090189
 H        -1.302621         2.607733         0.093922
 H         0.870901        -0.221705         0.343930
 H        -2.308889        -0.712666        -0.881341
 H        -1.087119        -1.610780        -0.050383
