19
Iteration:  1172
 O        -3.876368        -1.287440         0.831074
 C        -2.661348        -0.668423         1.147338
 C        -1.788525        -0.590830         2.556377
 C        -1.375194         0.722558         1.962431
 C        -2.729771         0.901761         1.268383
 C        -2.165021         1.509047        -0.000181
 C        -0.953457         0.567586         0.333399
 O         0.272019         0.546740        -0.196005
 C        -1.550974        -0.844511         0.108958
 H        -3.664381        -2.229827         0.611614
 H        -2.512864        -0.451294         3.399490
 H        -1.050966        -1.426785         2.724143
 H        -0.859391         1.450049         2.513315
 H        -3.661579         1.163832         1.710694
 H        -2.576308         1.213519        -0.993759
 H        -1.960187         2.635405         0.069181
 H         0.653761         1.389824        -0.505684
 H        -2.012874        -0.943078        -0.909713
 H        -0.750918        -1.595915         0.366090
