19
Iteration:  1283
 O        -3.731386        -1.460586         0.781721
 C        -2.734862        -0.625707         1.227151
 C        -1.885314        -0.550488         2.616818
 C        -1.354034         0.721528         1.950685
 C        -2.756837         0.961831         1.224049
 C        -2.142738         1.542079        -0.035667
 C        -0.969122         0.552263         0.331879
 O         0.306868         0.599588        -0.257770
 C        -1.528230        -0.836347         0.178460
 H        -4.596922        -1.047614         0.824670
 H        -2.468301        -0.371161         3.596316
 H        -1.228887        -1.460452         2.756904
 H        -0.860905         1.465305         2.648241
 H        -3.605164         1.442434         1.758460
 H        -2.586605         1.274381        -1.046490
 H        -1.915642         2.652204        -0.045553
 H         0.384005        -0.157219        -0.875994
 H        -1.872919        -1.112741        -0.870202
 H        -0.749020        -1.571413         0.612586
