19
Iteration:  1634
 O        -3.960382        -1.127912         1.129815
 C        -2.633505        -0.739591         1.147120
 C        -1.846222        -0.512269         2.500766
 C        -1.454260         0.740331         1.766600
 C        -2.774453         0.782412         1.037243
 C        -2.091686         1.309195        -0.227524
 C        -0.903957         0.468648         0.367858
 O         0.398280         0.845226         0.033653
 C        -1.529468        -1.008390         0.145584
 H        -4.025447        -2.134445         1.113768
 H        -2.569939        -0.202199         3.285571
 H        -1.165531        -1.288044         2.870637
 H        -0.995119         1.567534         2.188824
 H        -3.678581         1.167951         1.380284
 H        -2.499160         1.033441        -1.256060
 H        -2.075710         2.406096        -0.151892
 H         0.545214         1.101189        -0.866984
 H        -1.675661        -1.275931        -0.922906
 H        -0.816017        -1.804565         0.571756
