19
Iteration:  1413charge 0 multiplicity 1
 O        -3.617542        -1.718701         1.169476
 C        -2.675851        -0.670829         1.137031
 C        -1.959602        -0.399582         2.473357
 C        -1.540330         0.897058         1.790333
 C        -2.837043         1.040779         1.014067
 C        -1.946945         1.596991        -0.130784
 C        -1.003297         0.586192         0.291973
 O         0.420480         0.400606         0.017806
 C        -1.704417        -0.685563        -0.007481
 H        -3.817220        -2.058850         2.096016
 H        -2.672904        -0.074979         3.276105
 H        -1.228724        -1.024336         3.009508
 H        -0.915944         1.765334         2.259831
 H        -3.941796         1.179164         1.171579
 H        -2.479929         1.759020        -1.099121
 H        -1.631848         2.581892         0.370905
 H         0.627356        -0.514787        -0.141074
 H        -2.355775        -0.718049        -0.927686
 H        -1.162770        -1.673323        -0.165475
