19
Iteration:    83charge 0 multiplicity 1
 O        -3.829628        -1.488036         1.062055
 C        -2.733708        -0.636025         1.167936
 C        -1.845070        -0.498138         2.481264
 C        -1.435458         0.800019         1.768427
 C        -2.876634         0.928468         1.078794
 C        -2.101845         1.475315        -0.135202
 C        -0.924963         0.493758         0.296262
 O         0.452916         0.686727         0.008021
 C        -1.593271        -0.844970         0.054395
 H        -3.972492        -1.749016         1.956854
 H        -2.482475        -0.251497         3.361848
 H        -1.053731        -1.276269         2.591787
 H        -0.985747         1.672471         2.331036
 H        -3.727227         1.379561         1.606129
 H        -2.484564         1.334117        -1.199787
 H        -1.687258         2.484174         0.076283
 H         0.760323        -0.225640        -0.141651
 H        -2.063678        -0.983688        -0.948115
 H        -0.896372        -1.661106         0.368144
