19
Iteration:  4037charge 0 multiplicity 1
 O        -3.928429        -1.421719         1.060213
 C        -2.776502        -0.623282         1.139888
 C        -1.893799        -0.600971         2.346013
 C        -1.338855         0.694367         1.769980
 C        -2.768552         1.009825         1.082641
 C        -2.050341         1.507330        -0.154370
 C        -0.903234         0.435748         0.376305
 O         0.462502         0.760857         0.124204
 C        -1.709729        -0.846708        -0.025779
 H        -3.840910        -2.092516         1.808610
 H        -2.528540        -0.404779         3.234647
 H        -1.386467        -1.596666         2.555438
 H        -0.811336         1.336581         2.495187
 H        -3.476625         1.499813         1.742428
 H        -2.421735         1.321726        -1.203454
 H        -1.557819         2.485022        -0.059069
 H         1.094040         0.204049         0.688236
 H        -1.954637        -0.812689        -1.102328
 H        -1.126427        -1.753292         0.139353
