19
Iteration:   459
 O        -3.783894        -1.387874         0.888095
 C        -2.725534        -0.634385         1.210065
 C        -2.038490        -0.593162         2.597332
 C        -1.365322         0.668433         1.870719
 C        -2.752228         0.978813         1.290018
 C        -2.082435         1.430927         0.005885
 C        -0.893164         0.460477         0.301407
 O         0.313359         0.715314        -0.388851
 C        -1.516784        -0.873020         0.262276
 H        -3.761818        -1.590488        -0.121417
 H        -2.686853        -0.147890         3.426890
 H        -1.477564        -1.477575         2.969347
 H        -0.889109         1.576034         2.353158
 H        -3.416925         1.386679         2.061319
 H        -2.754656         1.308607        -0.885807
 H        -1.680915         2.393991        -0.093396
 H         0.479974         1.669966        -0.364756
 H        -1.675487        -1.410518        -0.718769
 H        -0.872971        -1.688776         0.596351
