19
Iteration:  1131
 O        -3.801651        -1.456195         0.871872
 C        -2.698745        -0.596790         1.186679
 C        -2.073721        -0.648747         2.644044
 C        -1.368098         0.613553         2.036644
 C        -2.685209         0.956582         1.217360
 C        -1.967968         1.537263         0.015504
 C        -0.916560         0.506944         0.277359
 O         0.228036         0.697355        -0.489674
 C        -1.505603        -0.851350         0.285479
 H        -3.807917        -1.548492        -0.123821
 H        -2.749863        -0.195818         3.389386
 H        -1.462774        -1.506362         2.919459
 H        -0.812387         1.431388         2.614863
 H        -3.521016         1.492932         1.612046
 H        -2.575617         1.398735        -0.866474
 H        -1.712724         2.554054         0.250008
 H         0.508362         1.584955        -0.272641
 H        -1.893246        -1.090236        -0.715898
 H        -0.956296        -1.677363         0.780054
