19
Iteration:  3506charge 0 multiplicity 1
 O        -3.883865        -1.400937         1.070379
 C        -2.748258        -0.579357         1.141687
 C        -1.903255        -0.542988         2.535284
 C        -1.342697         0.743287         1.803801
 C        -2.782646         0.938337         1.043774
 C        -2.104735         1.339280        -0.228206
 C        -0.933296         0.460850         0.260674
 O         0.447191         0.785547         0.062877
 C        -1.601000        -0.946189         0.137080
 H        -4.403258        -1.038450         0.319937
 H        -2.665800        -0.094331         3.218181
 H        -1.251798        -1.387480         2.871650
 H        -0.641101         1.533636         2.226253
 H        -3.382027         1.530300         1.750426
 H        -2.466471         1.037924        -1.205761
 H        -1.917929         2.436513        -0.323707
 H         1.006051         0.322356         0.766495
 H        -2.092216        -1.141422        -0.838317
 H        -0.959635        -1.790223         0.426373
