19
Iteration:  3534charge 0 multiplicity 1
 O        -3.864935        -1.564298         1.200515
 C        -2.730429        -0.675544         1.099464
 C        -1.940860        -0.520740         2.431734
 C        -1.484123         0.854495         1.825754
 C        -2.782258         1.026941         0.984159
 C        -1.951707         1.448472        -0.191271
 C        -0.905736         0.471667         0.347806
 O         0.424024         0.651003         0.007710
 C        -1.621296        -0.865736         0.079661
 H        -4.602419        -0.996218         0.807862
 H        -2.657464        -0.380696         3.240948
 H        -1.203479        -1.292569         2.721645
 H        -0.839213         1.610692         2.277363
 H        -3.542022         1.524224         1.560431
 H        -2.294390         1.180945        -1.229922
 H        -1.542009         2.467189        -0.084351
 H         1.009695         0.740802         0.827237
 H        -2.102899        -0.902181        -0.907432
 H        -0.926508        -1.703256         0.199383
