19
Iteration:  1260charge 0 multiplicity 1
 O        -3.830866        -1.505798         0.972219
 C        -2.701981        -0.682000         1.142815
 C        -1.778595        -0.546855         2.454972
 C        -1.394518         0.828756         1.839268
 C        -2.802373         0.902092         1.203386
 C        -2.055522         1.528819        -0.073782
 C        -0.953437         0.529184         0.363899
 O         0.404414         0.648681        -0.067008
 C        -1.693659        -0.800272         0.004853
 H        -4.371018        -1.439304         1.785443
 H        -2.581764        -0.524117         3.274568
 H        -1.051177        -1.369571         2.731081
 H        -0.938086         1.602395         2.416382
 H        -3.689316         1.361549         1.600017
 H        -2.411980         1.648667        -1.146941
 H        -1.765144         2.580118         0.303057
 H         0.790708        -0.254602        -0.138521
 H        -2.235168        -0.707682        -0.994599
 H        -1.110122        -1.780570         0.125316
