19
Iteration:  3106
 O        -3.889584        -1.345275         1.058394
 C        -2.668641        -0.720096         1.155248
 C        -1.761959        -0.569788         2.448342
 C        -1.506187         0.835438         1.884792
 C        -2.807696         0.841274         1.043426
 C        -2.005657         1.420125        -0.192390
 C        -0.954658         0.561864         0.375275
 O         0.363734         0.557284         0.006870
 C        -1.534776        -0.849841         0.068605
 H        -4.647339        -0.798461         1.135197
 H        -2.236508        -0.445449         3.455072
 H        -0.844595        -1.169292         2.533435
 H        -1.063718         1.608706         2.547970
 H        -3.879592         1.175654         1.297087
 H        -2.419963         1.291347        -1.184561
 H        -1.955240         2.457453         0.050331
 H         0.513665         1.490432         0.103479
 H        -1.965254        -0.937252        -0.940586
 H        -0.961065        -1.784735         0.230419
