19
Iteration:  2569
 O        -3.828830        -1.441367         1.239241
 C        -2.668596        -0.654943         1.131323
 C        -1.742309        -0.601202         2.296892
 C        -1.492562         0.811891         1.782182
 C        -2.832041         0.899601         1.077789
 C        -2.134888         1.559142        -0.212211
 C        -1.005662         0.621273         0.283874
 O         0.456001         0.397552         0.177575
 C        -1.636937        -0.743835         0.026787
 H        -4.267584        -1.408741         0.403223
 H        -2.053716        -0.639855         3.350923
 H        -0.879589        -1.311228         2.177063
 H        -1.033374         1.743544         2.202237
 H        -3.719255         1.418975         1.533394
 H        -2.731476         1.275424        -1.155109
 H        -1.906409         2.677370        -0.092690
 H         0.894958         1.098936         0.662049
 H        -2.048885        -0.864327        -1.014446
 H        -0.885154        -1.485027         0.307518
