19
Iteration:  2483
 O        -3.874221        -1.334963         0.878787
 C        -2.641091        -0.674810         1.170396
 C        -1.957383        -0.555881         2.599297
 C        -1.455573         0.810216         1.951855
 C        -2.743336         0.962209         1.229391
 C        -2.062110         1.364989        -0.109614
 C        -0.981488         0.490705         0.254883
 O         0.328925         0.625822        -0.254466
 C        -1.425504        -0.945252         0.276265
 H        -4.077780        -1.141394        -0.087529
 H        -2.735601        -0.241535         3.341100
 H        -1.293630        -1.384995         2.986824
 H        -0.935111         1.689935         2.413158
 H        -3.558186         1.564778         1.650996
 H        -2.631206         1.200294        -1.047399
 H        -1.566095         2.334786         0.060555
 H         0.592701         1.546395        -0.176844
 H        -1.834793        -1.412680        -0.675308
 H        -0.790572        -1.722815         0.740869
