19
Iteration:  4746charge 0 multiplicity 1
 O        -3.883666        -1.402833         0.984408
 C        -2.762917        -0.579248         1.196308
 C        -2.028933        -0.566408         2.454235
 C        -1.368167         0.722178         1.758190
 C        -2.737758         1.051145         1.157110
 C        -2.090159         1.442221        -0.125267
 C        -0.907983         0.462073         0.304055
 O         0.464053         0.748382         0.005949
 C        -1.531329        -1.028731         0.250648
 H        -4.155761        -1.556660         0.072392
 H        -2.687588        -0.331142         3.303553
 H        -1.360730        -1.428616         2.762151
 H        -0.721361         1.477658         2.277268
 H        -3.496269         1.704515         1.660153
 H        -2.634216         1.286724        -1.058709
 H        -1.709224         2.440576        -0.113912
 H         0.719851         0.574706        -0.916470
 H        -1.852903        -1.325961        -0.769112
 H        -1.011438        -1.885519         0.673549
