19
Iteration:   111charge 0 multiplicity 1
 O        -3.992254        -1.175775         0.982176
 C        -2.685444        -0.677879         1.167621
 C        -1.822844        -0.572800         2.535246
 C        -1.287024         0.706892         1.839030
 C        -2.729547         0.898166         1.115190
 C        -2.201337         1.288805        -0.249832
 C        -0.910525         0.438973         0.320650
 O         0.359516         0.930788         0.034206
 C        -1.517435        -1.006743         0.137050
 H        -4.004208        -2.059171         1.460132
 H        -2.533996        -0.256318         3.302471
 H        -1.171274        -1.372350         2.833891
 H        -0.827720         1.424405         2.468052
 H        -3.666457         1.245003         1.702385
 H        -2.626641         0.771482        -1.050023
 H        -1.907881         2.326757        -0.578750
 H         0.595021         0.497781        -0.838626
 H        -1.876532        -1.362621        -0.823229
 H        -0.761093        -1.660358         0.554405
