19
Iteration:   379
 O        -3.854436        -1.492113         1.400039
 C        -2.744180        -0.750690         1.101105
 C        -1.754304        -0.672532         2.263354
 C        -1.420934         0.689945         1.704268
 C        -2.744706         1.041318         1.149662
 C        -2.058501         1.598977        -0.196657
 C        -0.939011         0.527481         0.262401
 O         0.430841         0.674751         0.254583
 C        -1.746197        -0.858075        -0.184788
 H        -4.227306        -1.769042         0.473666
 H        -2.305125        -0.420281         3.172917
 H        -1.033990        -1.497487         2.513428
 H        -0.868728         1.477087         2.170029
 H        -3.395637         1.540150         1.715754
 H        -2.360351         1.432858        -1.232190
 H        -1.862270         2.639065         0.019285
 H         0.460481         1.645457         0.319247
 H        -2.402295        -0.660111        -1.039393
 H        -1.082553        -1.717658        -0.089974
