19
Iteration:  3174charge 0 multiplicity 1
 O        -3.846785        -1.437355         0.915066
 C        -2.702536        -0.659066         1.182997
 C        -1.975058        -0.473084         2.528777
 C        -1.507308         0.848975         1.917196
 C        -2.752015         0.956152         1.148796
 C        -1.997184         1.494122        -0.078436
 C        -0.880319         0.450820         0.385704
 O         0.407436         0.590077        -0.160963
 C        -1.590035        -0.902019         0.162472
 H        -3.803981        -2.384006         1.235813
 H        -2.670669        -0.264862         3.363717
 H        -1.333514        -1.336033         2.890529
 H        -1.028094         1.661365         2.513472
 H        -3.690431         1.545697         1.502301
 H        -2.390052         1.336420        -1.075137
 H        -1.624160         2.492474        -0.032898
 H         0.343846         0.958497        -1.067221
 H        -1.847072        -0.841393        -0.965829
 H        -0.823814        -1.685256         0.270684
