19
Iteration:  2224
 O        -3.738294        -1.654873         1.237842
 C        -2.730980        -0.641990         1.143527
 C        -1.987425        -0.392394         2.498461
 C        -1.390904         0.772102         1.746175
 C        -2.800215         1.077723         1.063613
 C        -2.001476         1.550030        -0.263551
 C        -0.956743         0.509258         0.349347
 O         0.362192         0.613467         0.064361
 C        -1.666699        -0.849624         0.008317
 H        -3.678157        -2.153389         0.426898
 H        -2.659804         0.038395         3.266245
 H        -1.355522        -1.243342         2.827800
 H        -0.683183         1.555630         2.107775
 H        -3.694718         1.596424         1.513586
 H        -2.246945         1.262019        -1.329126
 H        -1.613989         2.591703        -0.229513
 H         0.727268        -0.123210         0.576565
 H        -2.129093        -0.926674        -0.966872
 H        -0.988824        -1.717701         0.102418
