19
Iteration:  1794
 O        -3.897754        -1.379223         1.034399
 C        -2.708184        -0.684964         1.222804
 C        -1.910913        -0.630085         2.540712
 C        -1.414313         0.723532         1.882021
 C        -2.813499         0.856222         1.156031
 C        -2.090414         1.475351        -0.162268
 C        -0.877786         0.548023         0.328380
 O         0.389653         0.672603        -0.220293
 C        -1.487751        -0.875151         0.179054
 H        -4.432843        -0.910413         0.341192
 H        -2.559792        -0.256993         3.342186
 H        -1.255583        -1.418611         2.893965
 H        -0.987981         1.606727         2.406158
 H        -3.763468         1.224659         1.525856
 H        -2.322055         1.292615        -1.193890
 H        -1.872398         2.551964        -0.151458
 H         0.709854         1.503706         0.124037
 H        -1.667661        -1.081084        -0.852447
 H        -0.835288        -1.652144         0.448211
