19
Iteration:  2099charge 0 multiplicity 1
 O        -3.836358        -1.434382         1.219433
 C        -2.726818        -0.665513         1.117129
 C        -1.937796        -0.538438         2.469227
 C        -1.595739         0.885568         1.780903
 C        -2.873374         0.925040         0.943348
 C        -2.027422         1.538862        -0.147846
 C        -0.869332         0.502146         0.345330
 O         0.483712         0.555467        -0.100027
 C        -1.518976        -0.883517         0.084930
 H        -3.669476        -2.106109         1.847438
 H        -2.687976        -0.329876         3.238119
 H        -1.129152        -1.221224         2.795108
 H        -1.296057         1.666792         2.481347
 H        -3.777314         1.405975         1.294814
 H        -2.375074         1.559399        -1.165747
 H        -1.903056         2.605926         0.079217
 H         1.037371         0.535369         0.726513
 H        -1.911631        -1.025517        -0.961719
 H        -0.803970        -1.680570         0.300681
