19
Iteration:  3170charge 0 multiplicity 1
 O        -3.820251        -1.452422         0.898024
 C        -2.734236        -0.672041         1.200921
 C        -2.021690        -0.502848         2.559378
 C        -1.478245         0.846989         1.902151
 C        -2.737165         0.996326         1.164102
 C        -1.968811         1.486791        -0.120184
 C        -0.881040         0.434063         0.398423
 O         0.385011         0.605274        -0.167207
 C        -1.573015        -0.895628         0.128821
 H        -3.742195        -2.314226         1.315917
 H        -2.691635        -0.218536         3.401245
 H        -1.343616        -1.217849         3.010805
 H        -1.004514         1.596501         2.557831
 H        -3.554073         1.576435         1.605889
 H        -2.450964         1.317435        -1.133788
 H        -1.724582         2.597943         0.012113
 H         0.235904         0.995600        -1.053102
 H        -1.823114        -0.787140        -0.873732
 H        -0.956540        -1.800199         0.327466
