19
Iteration:   950
 O        -3.993107        -1.244526         0.974786
 C        -2.702304        -0.742388         1.131953
 C        -1.747002        -0.541049         2.520835
 C        -1.412618         0.785295         1.836709
 C        -2.824094         0.900782         1.260508
 C        -2.181183         1.307590        -0.103748
 C        -0.927209         0.485219         0.352084
 O         0.416986         0.697475        -0.087786
 C        -1.458537        -0.934826         0.141473
 H        -4.217750        -1.202758         0.041516
 H        -2.431193        -0.227882         3.328384
 H        -0.924540        -1.223814         2.769425
 H        -0.827809         1.574422         2.266160
 H        -3.673718         1.439545         1.821502
 H        -2.679333         1.004778        -1.007879
 H        -1.951778         2.366058        -0.086977
 H         0.518779         1.096038        -0.992108
 H        -1.592737        -1.118585        -0.944666
 H        -0.722214        -1.565391         0.613832
