19
Iteration:   582
 O        -3.771414        -1.664310         1.031834
 C        -2.731722        -0.693783         1.146620
 C        -1.869216        -0.490520         2.494074
 C        -1.419769         0.808545         1.831582
 C        -2.826736         0.979820         1.129525
 C        -2.010754         1.639908        -0.101995
 C        -0.961071         0.532951         0.364306
 O         0.395074         0.552280        -0.031145
 C        -1.645721        -0.763093         0.006901
 H        -4.202481        -1.784103         1.947638
 H        -2.549887        -0.218561         3.324402
 H        -1.110531        -1.270937         2.736042
 H        -0.952023         1.656026         2.363619
 H        -3.632169         1.581667         1.752493
 H        -2.302681         1.464706        -1.117864
 H        -1.790754         2.725948         0.063143
 H         0.452485         0.353890        -0.991198
 H        -2.116145        -0.735871        -1.019637
 H        -0.942600        -1.637495         0.148975
