19
Iteration:  4184
 O        -3.849273        -1.437721         1.135051
 C        -2.708691        -0.582084         1.060679
 C        -1.773090        -0.639054         2.331813
 C        -1.511184         0.749896         1.881590
 C        -2.764281         0.987873         0.993360
 C        -1.980153         1.527717        -0.118995
 C        -0.965823         0.455074         0.370618
 O         0.385264         0.645929         0.206465
 C        -1.638774        -0.864178        -0.067895
 H        -4.616963        -0.885167         1.227220
 H        -2.402520        -0.670209         3.271446
 H        -1.020054        -1.413581         2.342264
 H        -1.062951         1.557885         2.467264
 H        -3.640843         1.372987         1.611439
 H        -2.528675         1.573597        -1.071009
 H        -1.819710         2.636544         0.128941
 H         0.744780        -0.086030        -0.298427
 H        -1.918812        -0.797721        -1.133654
 H        -0.955037        -1.725050         0.254955
