19
Iteration:  1838
 O        -3.709010        -1.411623         0.660012
 C        -2.647618        -0.594063         1.252399
 C        -2.009086        -0.532045         2.697693
 C        -1.374040         0.734463         1.945796
 C        -2.793548         1.002673         1.177950
 C        -2.066394         1.474413        -0.072990
 C        -0.978241         0.525783         0.363714
 O         0.303737         0.542168        -0.339989
 C        -1.558277        -0.884032         0.311369
 H        -4.075822        -2.041428         1.382229
 H        -2.540259        -0.261856         3.621309
 H        -1.367740        -1.357787         2.949025
 H        -0.849276         1.477538         2.568914
 H        -3.667572         1.336131         1.735948
 H        -2.600693         1.350730        -1.003008
 H        -1.576563         2.467440        -0.047233
 H         0.366060         1.406754        -0.728200
 H        -2.023382        -1.114970        -0.609739
 H        -0.802501        -1.562171         0.551372
