19
Iteration:  4020
 O        -3.946923        -1.508598         1.086167
 C        -2.721390        -0.641502         1.064909
 C        -1.944563        -0.621123         2.442586
 C        -1.485241         0.760406         1.848560
 C        -2.762677         0.969418         1.131088
 C        -2.008809         1.579552        -0.163222
 C        -0.899592         0.554348         0.259130
 O         0.600804         0.665496         0.106444
 C        -1.681468        -0.816401        -0.049431
 H        -4.119480        -1.918795         1.990971
 H        -2.429668        -0.590029         3.430193
 H        -1.088607        -1.253316         2.619912
 H        -0.923970         1.625254         2.307772
 H        -3.665014         1.497349         1.495059
 H        -2.528242         1.379668        -1.077244
 H        -1.878912         2.641451         0.078946
 H         0.882634        -0.290368         0.341942
 H        -2.273366        -0.691057        -0.962638
 H        -1.140095        -1.803341        -0.043319
