19
Iteration:  4529
 O        -3.868522        -1.393507         1.168313
 C        -2.755887        -0.644071         1.163171
 C        -1.908072        -0.594608         2.432532
 C        -1.429084         0.786639         1.782280
 C        -2.883622         0.898060         1.050244
 C        -2.021208         1.504371        -0.192439
 C        -0.858306         0.581493         0.233248
 O         0.512287         0.544807         0.136479
 C        -1.627171        -0.840168         0.129407
 H        -4.175329        -1.108040         0.289739
 H        -2.601824        -0.390906         3.215887
 H        -1.208353        -1.409768         2.570710
 H        -1.123383         1.645360         2.468272
 H        -3.837975         1.294770         1.419458
 H        -2.363915         1.314773        -1.243084
 H        -2.016806         2.577561         0.160985
 H         0.962508         0.602176        -0.745211
 H        -1.898297        -1.066259        -0.973416
 H        -0.983742        -1.666018         0.465144
