19
Iteration:   319
 O        -3.807719        -1.480689         0.819102
 C        -2.688157        -0.608378         1.151706
 C        -1.965296        -0.563952         2.664014
 C        -1.356961         0.741653         2.025027
 C        -2.719247         0.967484         1.270403
 C        -2.091564         1.523776         0.023603
 C        -0.910095         0.500647         0.303718
 O         0.244186         0.584902        -0.442092
 C        -1.474569        -0.877377         0.222522
 H        -4.042313        -1.228821        -0.101408
 H        -2.685599        -0.169427         3.415581
 H        -1.419862        -1.397352         3.060482
 H        -0.725221         1.477520         2.618016
 H        -3.793317         1.300067         1.756703
 H        -2.749700         1.450768        -0.894143
 H        -1.916564         2.676747         0.185911
 H         0.522193         1.461684        -0.185156
 H        -1.685494        -1.291800        -0.741967
 H        -0.766959        -1.644573         0.580040
