19
Iteration:  3031charge 0 multiplicity 1
 O        -3.834501        -1.551731         1.069042
 C        -2.735684        -0.641393         1.218813
 C        -2.030106        -0.482366         2.586551
 C        -1.520439         0.755826         1.964473
 C        -2.755135         1.027158         1.062963
 C        -1.919072         1.484795        -0.092320
 C        -0.877997         0.518489         0.331781
 O         0.406823         0.624847        -0.242279
 C        -1.622598        -0.871649         0.061732
 H        -3.590536        -2.182594         0.322200
 H        -2.824206        -0.438789         3.358771
 H        -1.350121        -1.306437         2.866192
 H        -0.980822         1.478058         2.618715
 H        -3.750799         1.420900         1.464141
 H        -2.137590         1.517917        -1.155414
 H        -1.509358         2.417520         0.268391
 H         0.770939         1.545198        -0.106015
 H        -2.110796        -0.877692        -0.979228
 H        -0.895754        -1.720785         0.176962
