19
Iteration:  2963
 O        -3.942474        -1.413102         1.009067
 C        -2.715057        -0.649741         1.188578
 C        -1.910287        -0.468321         2.477810
 C        -1.308419         0.698626         1.862456
 C        -2.747601         0.957195         1.163129
 C        -2.054951         1.340484        -0.191141
 C        -0.896533         0.435755         0.376071
 O         0.435058         0.826817        -0.057075
 C        -1.682389        -0.975195         0.089084
 H        -3.933384        -1.618918         0.028758
 H        -2.544666        -0.180559         3.332543
 H        -1.225701        -1.233613         2.815394
 H        -0.767178         1.382639         2.480191
 H        -3.469507         1.455150         1.759418
 H        -2.532227         0.964206        -1.060997
 H        -1.748432         2.325269        -0.290165
 H         0.518703         1.710594         0.352156
 H        -1.984016        -1.037087        -0.966938
 H        -1.164211        -1.934076         0.398545
