19
Iteration:  1565charge 0 multiplicity 1
 O        -3.585698        -1.715364         1.168646
 C        -2.690042        -0.645966         1.137255
 C        -2.025673        -0.355181         2.521821
 C        -1.567910         0.851708         1.852710
 C        -2.818561         1.011077         0.957094
 C        -1.935763         1.638476        -0.114903
 C        -0.990239         0.576323         0.327167
 O         0.440400         0.437446        -0.091559
 C        -1.738664        -0.769312        -0.000571
 H        -3.696968        -2.077448         2.058603
 H        -2.893361        -0.138807         3.201848
 H        -1.279762        -0.946857         3.126044
 H        -1.056466         1.757659         2.439360
 H        -3.814914         1.459987         1.397755
 H        -2.013795         1.641870        -1.208338
 H        -1.732514         2.730324         0.060746
 H         0.578654        -0.520244        -0.001982
 H        -2.245761        -0.963626        -1.006284
 H        -1.062277        -1.669337         0.196482
