19
Iteration:   958charge 0 multiplicity 1
 O        -4.000985        -1.231319         0.920601
 C        -2.656211        -0.702570         1.183917
 C        -1.858283        -0.525171         2.562397
 C        -1.351773         0.741822         1.838138
 C        -2.712319         0.855205         1.249881
 C        -2.230837         1.321887        -0.085787
 C        -0.969808         0.488567         0.349629
 O         0.396152         0.685409        -0.153878
 C        -1.397115        -0.899568         0.184789
 H        -4.259605        -1.159725         0.020570
 H        -2.343005        -0.317458         3.520377
 H        -1.171772        -1.328605         2.791254
 H        -0.877742         1.663011         2.441761
 H        -3.665007         1.202817         1.593184
 H        -2.771566         0.995564        -1.037220
 H        -1.965596         2.345345        -0.220857
 H         0.303183         1.329227        -0.907035
 H        -1.569796        -1.265220        -0.797900
 H        -0.638398        -1.573583         0.608463
