19
Iteration:  4021charge 0 multiplicity 1
 O        -3.946537        -1.505538         1.087856
 C        -2.737103        -0.640707         1.066104
 C        -1.948237        -0.620991         2.440270
 C        -1.477885         0.758123         1.848794
 C        -2.755576         0.970504         1.142001
 C        -2.012044         1.581295        -0.173365
 C        -0.902402         0.540568         0.267726
 O         0.604896         0.673739         0.109493
 C        -1.674480        -0.822263        -0.050437
 H        -4.097693        -1.928609         1.970574
 H        -2.454903        -0.586367         3.434087
 H        -1.067434        -1.275667         2.585715
 H        -0.927375         1.617604         2.246668
 H        -3.650461         1.500816         1.510939
 H        -2.563055         1.398723        -1.126973
 H        -1.884094         2.648096         0.058738
 H         0.907185        -0.251596         0.364971
 H        -2.314733        -0.685177        -0.967679
 H        -1.135727        -1.803930        -0.059706
