19
Iteration:  2367
 O        -3.821676        -1.408984         1.093436
 C        -2.643590        -0.648625         1.181393
 C        -1.887340        -0.534318         2.417614
 C        -1.513124         0.905583         1.919742
 C        -2.820636         0.886592         1.100431
 C        -2.072985         1.504800        -0.199227
 C        -0.936673         0.557375         0.372763
 O         0.404651         0.534768        -0.116802
 C        -1.541126        -0.839563         0.151464
 H        -4.064125        -1.638554         0.172889
 H        -2.609413        -0.455826         3.228217
 H        -1.207161        -1.328330         2.591733
 H        -1.126060         1.749160         2.386554
 H        -3.766980         1.187193         1.421112
 H        -2.371444         1.185835        -1.188247
 H        -1.934823         2.565418        -0.036949
 H         0.939697         0.033524         0.494826
 H        -1.996823        -1.061052        -0.779518
 H        -0.953864        -1.708473         0.426997
