19
Iteration:  4562charge 0 multiplicity 1
 O        -3.912801        -1.421553         1.030245
 C        -2.680580        -0.689116         1.185313
 C        -2.029202        -0.513732         2.510270
 C        -1.372708         0.715688         1.872033
 C        -2.718192         1.144097         1.133377
 C        -1.909739         1.411220        -0.179680
 C        -0.934132         0.424384         0.340120
 O         0.326484         0.736498         0.011755
 C        -1.561986        -0.987963         0.126112
 H        -3.962581        -1.470668         0.088392
 H        -2.782113        -0.196724         3.231068
 H        -1.370790        -1.265347         2.977494
 H        -0.687588         1.355684         2.514105
 H        -3.680817         1.520734         1.530471
 H        -2.463351         1.198648        -1.142916
 H        -1.507386         2.454851        -0.416582
 H         0.302995         0.641095        -0.916162
 H        -1.767278        -0.913675        -0.995020
 H        -0.974545        -1.898592         0.292434
