19
Iteration:  1871charge 0 multiplicity 1
 O        -3.972795        -1.420725         1.156437
 C        -2.692185        -0.655113         1.064665
 C        -1.953608        -0.546183         2.411637
 C        -1.401921         0.759313         1.866359
 C        -2.807631         0.938264         1.104628
 C        -2.043141         1.474243        -0.090390
 C        -0.884660         0.507237         0.380392
 O         0.455901         0.689657        -0.093488
 C        -1.566370        -0.925998         0.071895
 H        -3.645904        -2.360289         0.984935
 H        -2.647427        -0.236963         3.195980
 H        -1.243104        -1.315883         2.651659
 H        -0.865486         1.527765         2.406157
 H        -3.621275         1.287224         1.690516
 H        -2.551907         1.319492        -1.045558
 H        -1.568552         2.474653        -0.034972
 H         0.619121         1.630669        -0.291409
 H        -1.877840        -1.038661        -0.939797
 H        -0.889322        -1.693885         0.338581
