19
Iteration:  1286
 O        -3.728565        -1.457368         0.772619
 C        -2.735356        -0.595937         1.213078
 C        -1.895324        -0.567700         2.633993
 C        -1.337799         0.723633         1.954659
 C        -2.752767         0.958703         1.263910
 C        -2.144847         1.533301        -0.070025
 C        -0.974299         0.547513         0.339815
 O         0.302257         0.612538        -0.279938
 C        -1.511686        -0.858670         0.197653
 H        -4.582406        -1.026240         0.743845
 H        -2.520651        -0.419363         3.530923
 H        -1.295127        -1.475552         2.781144
 H        -0.799831         1.444716         2.704250
 H        -3.650023         1.486071         1.718792
 H        -2.600691         1.319090        -1.046402
 H        -1.948951         2.579553        -0.021319
 H         0.354709        -0.110002        -0.948127
 H        -1.842166        -1.149248        -0.804380
 H        -0.813937        -1.502178         0.723411
