19
Iteration:  2609charge 0 multiplicity 1
 O        -3.790891        -1.503860         1.140367
 C        -2.741630        -0.641322         1.165435
 C        -2.008964        -0.569424         2.505255
 C        -1.382941         0.697073         1.776470
 C        -2.727475         0.966919         1.100637
 C        -1.981104         1.497591        -0.127234
 C        -0.934926         0.492569         0.253338
 O         0.405734         0.694291        -0.088179
 C        -1.654530        -0.863313         0.100225
 H        -4.409014        -1.288525         0.386155
 H        -2.656073        -0.267627         3.322076
 H        -1.407796        -1.438615         2.768088
 H        -0.872959         1.462207         2.423825
 H        -3.640354         1.379186         1.654770
 H        -2.389468         1.511860        -1.110967
 H        -1.596713         2.499342         0.032768
 H         0.669592         1.361379         0.598982
 H        -2.164508        -1.067285        -0.840078
 H        -0.937759        -1.649285         0.309052
