19
Iteration:  4932
 O        -4.005743        -1.445293         0.921817
 C        -2.723420        -0.704038         1.120580
 C        -1.953139        -0.527464         2.529310
 C        -1.317372         0.729236         1.824963
 C        -2.699655         0.946283         1.161539
 C        -2.047401         1.484399        -0.199743
 C        -0.951301         0.553346         0.321750
 O         0.480926         0.648504        -0.036884
 C        -1.566280        -0.804824         0.138383
 H        -4.042170        -2.098947         1.616637
 H        -2.543552        -0.275220         3.410986
 H        -1.350072        -1.376656         2.837674
 H        -0.997942         1.645615         2.259039
 H        -3.548865         1.472269         1.753326
 H        -2.694027         1.227649        -1.016278
 H        -1.868243         2.552799        -0.194190
 H         1.025328         0.635523         0.765309
 H        -2.150580        -0.856348        -0.833690
 H        -1.079559        -1.780923         0.139193
