19
Iteration:  2934charge 0 multiplicity 1
 O        -3.887949        -1.453384         1.332511
 C        -2.668113        -0.696593         1.131037
 C        -2.008152        -0.611443         2.409611
 C        -1.530102         0.690350         1.829443
 C        -2.814699         0.915397         0.979622
 C        -1.954313         1.588801        -0.191117
 C        -0.900889         0.556731         0.363567
 O         0.442554         0.678424        -0.081371
 C        -1.540309        -0.875458         0.030365
 H        -4.401128        -1.491900         0.458104
 H        -2.723506        -0.500416         3.242260
 H        -1.225309        -1.385993         2.553103
 H        -1.176025         1.547319         2.431849
 H        -3.658719         1.355075         1.601439
 H        -2.317154         1.513275        -1.281827
 H        -1.487277         2.632317        -0.004298
 H         0.954247         1.056961         0.686393
 H        -1.779483        -1.001160        -1.061886
 H        -0.813153        -1.625531         0.402092
