19
Iteration:    48charge 0 multiplicity 1
 O        -3.555187        -1.875704         1.181315
 C        -2.716149        -0.687117         1.129078
 C        -2.046594        -0.423635         2.402053
 C        -1.534569         0.909837         1.896137
 C        -2.778044         1.183387         1.045354
 C        -1.923525         1.650553        -0.105695
 C        -0.976138         0.529876         0.343879
 O         0.349746         0.441980        -0.128041
 C        -1.715030        -0.707159         0.041307
 H        -4.423860        -1.632206         1.473606
 H        -2.552082        -0.407491         3.382266
 H        -1.356994        -1.268811         2.556451
 H        -1.143927         1.755143         2.438596
 H        -3.628167         1.769945         1.568271
 H        -2.232942         1.730385        -1.114222
 H        -1.294381         2.597801         0.086779
 H         0.859111        -0.238833         0.349370
 H        -2.317503        -0.713201        -0.872632
 H        -1.086955        -1.616970        -0.078755
