19
Iteration:  1053
 O        -3.772299        -1.507078         1.312475
 C        -2.665696        -0.687811         1.030439
 C        -1.665295        -0.562156         2.209098
 C        -1.408317         0.829559         1.799974
 C        -2.782136         1.032545         1.117486
 C        -2.154178         1.551446        -0.122693
 C        -1.036224         0.541693         0.331213
 O         0.413105         0.460319         0.233240
 C        -1.817664        -0.800261        -0.138297
 H        -4.286743        -1.567387         0.513807
 H        -2.171437        -0.665752         3.179465
 H        -0.788239        -1.220630         2.353444
 H        -0.917868         1.694470         2.255813
 H        -3.634702         1.255961         1.665560
 H        -2.584916         1.497878        -1.129091
 H        -1.817108         2.608089        -0.019370
 H         0.777183         1.202628         0.730875
 H        -2.071361        -0.692363        -1.205763
 H        -1.154920        -1.717036        -0.117013
