19
Iteration:  1392charge 0 multiplicity 1
 O        -3.643170        -1.673949         1.235667
 C        -2.740114        -0.652643         1.118123
 C        -1.822076        -0.449103         2.381429
 C        -1.518392         0.906349         1.695812
 C        -2.829787         1.023533         0.989728
 C        -2.034820         1.660210        -0.202457
 C        -0.989445         0.568299         0.352004
 O         0.402903         0.420217         0.247205
 C        -1.759833        -0.776130        -0.092220
 H        -3.804152        -2.076867         2.094230
 H        -2.393325        -0.280559         3.384970
 H        -0.999316        -1.209297         2.518029
 H        -1.018570         1.701460         2.378099
 H        -3.561474         1.573240         1.649972
 H        -2.190526         1.466487        -1.330142
 H        -1.810156         2.756516         0.095604
 H         0.746592        -0.111509        -0.508259
 H        -2.415076        -0.880392        -1.027753
 H        -1.126243        -1.732384        -0.210602
