19
Iteration:  4104
 O        -3.924459        -1.300177         0.787365
 C        -2.663025        -0.650629         1.173554
 C        -1.984498        -0.616837         2.590193
 C        -1.341695         0.727329         1.984360
 C        -2.730052         0.988457         1.213823
 C        -2.032034         1.452299        -0.103931
 C        -0.911576         0.484596         0.374497
 O         0.291833         0.703983        -0.185583
 C        -1.536805        -0.877150         0.164911
 H        -3.762033        -1.982302         0.151992
 H        -2.604488        -0.395073         3.479307
 H        -1.285425        -1.485483         2.757400
 H        -0.818070         1.517662         2.625156
 H        -3.547691         1.455779         1.790419
 H        -2.581290         1.269783        -1.038881
 H        -1.678864         2.526226        -0.059213
 H         0.795378        -0.091595        -0.111448
 H        -1.765411        -1.055572        -0.860204
 H        -0.992146        -1.785477         0.532538
