19
Iteration:  1209
 O        -4.040498        -1.399382         1.313953
 C        -2.770793        -0.631369         1.045733
 C        -1.778981        -0.665927         2.307739
 C        -1.368275         0.642248         1.780502
 C        -2.766831         0.909466         1.086275
 C        -2.007098         1.539112        -0.118914
 C        -0.942215         0.536400         0.322814
 O         0.461451         0.782815         0.079664
 C        -1.659131        -0.877873        -0.128777
 H        -3.608587        -2.265548         1.628133
 H        -2.219834        -0.717658         3.308207
 H        -0.986267        -1.413404         2.285101
 H        -0.773310         1.365786         2.511932
 H        -3.672572         1.419682         1.505168
 H        -2.534490         1.378455        -1.047378
 H        -1.795872         2.573210        -0.011663
 H         0.703545         1.404193         0.774976
 H        -2.051541        -1.015711        -1.136613
 H        -1.035792        -1.764273         0.012057
