19
Iteration:  4913
 O        -3.941715        -1.332165         0.848694
 C        -2.756574        -0.615119         1.189341
 C        -1.832144        -0.502559         2.553165
 C        -1.406223         0.777551         1.899267
 C        -2.803775         0.936698         1.133622
 C        -2.048108         1.368438        -0.140889
 C        -0.866931         0.451031         0.375050
 O         0.427229         0.726816        -0.085734
 C        -1.645948        -0.896603         0.072455
 H        -3.919709        -2.222659         1.259294
 H        -2.498522        -0.242893         3.459036
 H        -1.178124        -1.325818         2.913498
 H        -0.846914         1.446505         2.509444
 H        -3.686949         1.450705         1.604257
 H        -2.400468         1.118502        -1.114730
 H        -1.902382         2.459977        -0.005140
 H         1.111328         0.196069         0.441430
 H        -1.855350        -1.133543        -0.981508
 H        -1.031463        -1.763088         0.381353
