19
Iteration:  3575charge 0 multiplicity 1
 O        -3.850998        -1.524726         1.111275
 C        -2.667458        -0.687810         1.190792
 C        -1.979923        -0.494363         2.503694
 C        -1.478732         0.807465         1.838943
 C        -2.787206         1.009086         1.083280
 C        -2.003465         1.593816        -0.186132
 C        -0.974267         0.543084         0.321193
 O         0.453087         0.436580        -0.077832
 C        -1.526342        -0.846044         0.137857
 H        -4.308810        -1.500629         0.270426
 H        -2.868489        -0.420977         3.080037
 H        -1.183422        -1.177226         2.744761
 H        -1.178490         1.665483         2.316841
 H        -3.666303         1.588842         1.400330
 H        -2.391209         1.494429        -1.186312
 H        -1.848958         2.618297        -0.024284
 H         0.865353         1.190503         0.395896
 H        -2.002537        -0.955990        -0.883276
 H        -0.788660        -1.690883         0.351492
