19
Iteration:  2996
 O        -3.843393        -1.282021         0.900156
 C        -2.653398        -0.630993         1.172359
 C        -1.898942        -0.558207         2.491994
 C        -1.371492         0.757201         1.919785
 C        -2.843915         0.922816         1.143053
 C        -2.184803         1.422572        -0.126972
 C        -0.988687         0.565384         0.383050
 O         0.342428         0.519560        -0.139504
 C        -1.441691        -0.883562         0.269606
 H        -3.617862        -1.574364        -0.041164
 H        -2.557399        -0.415905         3.372548
 H        -1.198303        -1.366873         2.621888
 H        -0.864989         1.389914         2.619343
 H        -3.680334         1.320930         1.714389
 H        -2.597307         1.266486        -1.094682
 H        -2.024035         2.444350        -0.038229
 H         0.538571         1.252259        -0.783344
 H        -1.488689        -1.290367        -0.745853
 H        -0.656053        -1.451711         0.842641
