19
Iteration:  1915
 O        -3.876602        -1.442807         1.292668
 C        -2.676027        -0.718431         1.136272
 C        -1.663564        -0.514317         2.296599
 C        -1.458200         0.839529         1.720845
 C        -2.854711         0.939493         1.029550
 C        -2.122484         1.501259        -0.242683
 C        -0.967105         0.532254         0.325978
 O         0.455073         0.588465         0.239008
 C        -1.653083        -0.914734        -0.030900
 H        -4.502034        -0.985343         0.664704
 H        -2.161982        -0.545326         3.264822
 H        -0.807987        -1.172542         2.213721
 H        -0.908091         1.642270         2.200528
 H        -3.800116         1.268868         1.361939
 H        -2.463004         1.287479        -1.258990
 H        -2.099872         2.602561        -0.180605
 H         0.682205         0.680728         1.189296
 H        -2.059254        -0.747613        -1.004745
 H        -1.141267        -1.830157        -0.100683
