19
Iteration:  3256charge 0 multiplicity 1
 O        -3.943989        -1.454504         1.122612
 C        -2.741990        -0.661356         1.195844
 C        -1.955933        -0.620932         2.469243
 C        -1.420603         0.753950         1.801984
 C        -2.766781         0.953792         1.091563
 C        -1.941390         1.494245        -0.206466
 C        -0.876602         0.498677         0.265208
 O         0.436332         0.789978         0.036886
 C        -1.656814        -0.876469         0.143477
 H        -3.922637        -2.106298         0.440388
 H        -2.610007        -0.334821         3.328422
 H        -1.140991        -1.312278         2.688910
 H        -0.842604         1.544141         2.358795
 H        -3.628092         1.460813         1.498947
 H        -2.318623         1.289663        -1.237176
 H        -1.608535         2.563879        -0.014955
 H         0.886653         0.209945        -0.553930
 H        -2.178223        -0.929771        -0.836318
 H        -0.948997        -1.729930         0.326398
