19
Iteration:  1852
 O        -3.846522        -1.454701         0.836117
 C        -2.763803        -0.664738         1.253070
 C        -1.996182        -0.528762         2.613547
 C        -1.360841         0.734687         1.890655
 C        -2.702087         0.936035         1.181640
 C        -2.038484         1.526275        -0.100369
 C        -0.914157         0.487199         0.299098
 O         0.342563         0.623438        -0.222836
 C        -1.533169        -0.836425         0.201431
 H        -3.761411        -2.327222         1.242094
 H        -2.719061        -0.082761         3.347354
 H        -1.420584        -1.388975         3.012413
 H        -0.869448         1.532793         2.405396
 H        -3.458115         1.588310         1.568481
 H        -2.408523         1.364416        -1.134217
 H        -1.937827         2.536677         0.219143
 H         0.435061         1.482269        -0.700735
 H        -1.951122        -1.061059        -0.801309
 H        -0.892081        -1.681377         0.621048
