19
Iteration:  4047
 O        -3.936553        -1.364135         1.045529
 C        -2.725060        -0.581707         1.038351
 C        -1.914493        -0.636591         2.356079
 C        -1.340299         0.635699         1.826574
 C        -2.755720         0.986663         1.110750
 C        -1.934593         1.428608        -0.091173
 C        -0.928993         0.495469         0.316393
 O         0.350442         0.779709         0.068363
 C        -1.652977        -0.871432         0.054431
 H        -3.885750        -2.169639         1.624516
 H        -2.443191        -0.248439         3.254011
 H        -1.160622        -1.475006         2.637689
 H        -0.745985         1.353742         2.412906
 H        -3.601393         1.578924         1.459499
 H        -2.458193         1.236670        -1.117368
 H        -1.668361         2.503876         0.017320
 H         0.839154         0.345420         0.837694
 H        -2.019662        -0.927550        -1.020101
 H        -1.209376        -1.798897         0.398052
