19
Iteration:  3041charge 0 multiplicity 1
 O        -3.785830        -1.589301         1.148516
 C        -2.744949        -0.614786         1.113842
 C        -2.066129        -0.547392         2.514152
 C        -1.440023         0.708191         1.868191
 C        -2.765057         1.022268         1.103017
 C        -1.875918         1.589316        -0.121364
 C        -0.923941         0.447260         0.302960
 O         0.399803         0.679397        -0.157685
 C        -1.672712        -0.854667         0.120626
 H        -3.604590        -2.273273         0.431833
 H        -2.669771        -0.039030         3.295261
 H        -1.450865        -1.358122         2.917866
 H        -0.884324         1.505293         2.395797
 H        -3.759991         1.489985         1.359281
 H        -2.255578         1.507090        -1.126365
 H        -1.456692         2.549594         0.003418
 H         0.780260         1.470515         0.301420
 H        -2.204652        -0.923424        -0.860276
 H        -1.203942        -1.860244         0.283479
