19
Iteration:   293
 O        -3.809984        -1.397964         0.827408
 C        -2.701816        -0.639154         1.252501
 C        -2.049151        -0.606263         2.608704
 C        -1.311758         0.686947         1.920290
 C        -2.696952         0.972326         1.291218
 C        -2.039009         1.383358        -0.039681
 C        -0.915060         0.457914         0.319544
 O         0.233067         0.741080        -0.431293
 C        -1.485323        -0.881029         0.325193
 H        -3.905184        -1.042777        -0.058630
 H        -2.716287        -0.176346         3.372208
 H        -1.443073        -1.520780         2.914400
 H        -0.809504         1.451655         2.445767
 H        -3.494653         1.362224         1.828575
 H        -2.678976         1.231024        -1.030909
 H        -1.690723         2.396190         0.046198
 H         0.271832         1.667442        -0.185960
 H        -1.909583        -1.133878        -0.734731
 H        -0.755538        -1.701100         0.593972
