19
Iteration:  2241
 O        -3.715208        -1.690248         1.158850
 C        -2.704489        -0.645190         1.167430
 C        -1.872364        -0.360480         2.463190
 C        -1.415718         0.937507         1.767028
 C        -2.737257         1.049593         1.039649
 C        -2.080444         1.516324        -0.206563
 C        -0.994572         0.481275         0.235901
 O         0.431714         0.468424         0.143996
 C        -1.766578        -0.806200        -0.002277
 H        -3.772295        -2.153303         0.346591
 H        -2.657080        -0.003245         3.142140
 H        -1.141280        -1.016480         2.999119
 H        -0.949623         1.799950         2.320482
 H        -3.577032         1.600152         1.518644
 H        -2.717383         1.453294        -1.071791
 H        -1.861639         2.582213        -0.143397
 H         0.679158         0.139646         1.027753
 H        -2.237384        -0.729212        -1.016212
 H        -1.117729        -1.689599         0.133784
