19
Iteration:  3546charge 0 multiplicity 1
 O        -3.816653        -1.532276         1.206866
 C        -2.753257        -0.586909         1.104575
 C        -1.930404        -0.461429         2.401863
 C        -1.475157         0.790724         1.804294
 C        -2.884682         0.946230         1.028710
 C        -1.894233         1.479083        -0.135640
 C        -0.951350         0.487033         0.409603
 O         0.425366         0.561799        -0.061326
 C        -1.554381        -0.865041         0.055471
 H        -4.707306        -1.358859         0.914805
 H        -2.700242        -0.392589         3.189945
 H        -1.119207        -1.196932         2.610830
 H        -1.234565         1.748830         2.370119
 H        -3.745981         1.563174         1.189253
 H        -2.099977         1.581447        -1.259726
 H        -1.686327         2.553995         0.174548
 H         0.892541         0.711435         0.747172
 H        -1.722084        -0.911326        -1.020031
 H        -1.042877        -1.739988         0.400130
