19
Iteration:  2053charge 0 multiplicity 1
 O        -3.854056        -1.462533         1.141651
 C        -2.727654        -0.621358         1.207160
 C        -1.842380        -0.480356         2.480740
 C        -1.429731         0.796366         1.751252
 C        -2.797436         1.004023         1.016619
 C        -2.026955         1.369665        -0.297085
 C        -0.980751         0.506011         0.332306
 O         0.462977         0.720307         0.082698
 C        -1.712312        -0.902078         0.074044
 H        -3.693017        -2.413750         1.100821
 H        -2.358858        -0.351918         3.453895
 H        -1.018342        -1.260087         2.544589
 H        -0.986395         1.721332         2.119440
 H        -3.566356         1.563047         1.493384
 H        -2.406808         1.195729        -1.281794
 H        -1.721533         2.430853        -0.410341
 H         0.840230         0.429411         0.958719
 H        -2.220055        -1.100287        -0.956864
 H        -1.159299        -1.879068         0.281603
