19
Iteration:  1253charge 0 multiplicity 1
 O        -3.835489        -1.502034         1.079060
 C        -2.741680        -0.649093         1.117162
 C        -1.777010        -0.566274         2.424278
 C        -1.377575         0.773878         1.886050
 C        -2.816817         0.914918         1.120195
 C        -2.043621         1.562883        -0.089018
 C        -0.951749         0.520097         0.316628
 O         0.417573         0.688161         0.002434
 C        -1.739607        -0.821853        -0.080530
 H        -4.243673        -1.699886         1.976015
 H        -2.435227        -0.538854         3.307426
 H        -1.062741        -1.386812         2.580070
 H        -0.802919         1.604703         2.485945
 H        -3.742140         1.360620         1.586859
 H        -2.271238         1.568041        -1.153948
 H        -1.775598         2.544159         0.230450
 H         0.872856        -0.148685         0.138403
 H        -2.044071        -0.822742        -1.126230
 H        -1.183806        -1.750191         0.000197
