19
Iteration:  3810
 O        -3.889087        -1.320413         0.900364
 C        -2.677767        -0.680809         1.127802
 C        -1.979567        -0.510199         2.546036
 C        -1.466219         0.789644         1.899691
 C        -2.777427         0.940898         1.145922
 C        -2.030919         1.358404        -0.097906
 C        -0.929231         0.461940         0.338621
 O         0.431770         0.723664        -0.106627
 C        -1.523702        -0.912863         0.129847
 H        -4.474197        -1.341482         1.672935
 H        -2.680984        -0.300788         3.377843
 H        -1.439714        -1.361015         2.896302
 H        -0.790073         1.604199         2.375115
 H        -3.756097         1.286086         1.506635
 H        -2.386019         1.118899        -1.082466
 H        -1.721152         2.415049         0.009858
 H         1.044446         0.007521        -0.364539
 H        -1.813360        -0.996173        -0.926937
 H        -0.799427        -1.722062         0.418275
