19
Iteration:  3038charge 0 multiplicity 1
 O        -3.798203        -1.584852         1.123771
 C        -2.744498        -0.608007         1.145681
 C        -2.052158        -0.528323         2.541647
 C        -1.474448         0.711729         1.900473
 C        -2.766562         1.033804         1.098488
 C        -1.886362         1.558172        -0.115663
 C        -0.906736         0.468275         0.303192
 O         0.400854         0.670414        -0.185086
 C        -1.660778        -0.864490         0.097453
 H        -3.605662        -2.243831         0.430425
 H        -2.718681        -0.135631         3.346012
 H        -1.434218        -1.333608         2.918344
 H        -0.929564         1.446146         2.454782
 H        -3.723422         1.386186         1.326475
 H        -2.188561         1.490779        -1.166163
 H        -1.408155         2.527876         0.114961
 H         0.816005         1.488275         0.165117
 H        -2.168186        -0.913394        -0.815419
 H        -1.136449        -1.822324         0.222623
