19
Iteration:  1096charge 0 multiplicity 1
 O        -3.882606        -1.442287         1.182245
 C        -2.698019        -0.676901         1.088116
 C        -1.836012        -0.636607         2.378930
 C        -1.395895         0.713632         1.839040
 C        -2.792062         0.864059         1.134331
 C        -2.062117         1.529408        -0.049375
 C        -0.918570         0.542897         0.352629
 O         0.432303         0.663426        -0.073581
 C        -1.616963        -0.814467         0.038579
 H        -4.574558        -1.047723         0.603874
 H        -2.494033        -0.581468         3.260887
 H        -1.126418        -1.450265         2.644001
 H        -0.938043         1.434651         2.449268
 H        -3.656602         1.320533         1.540906
 H        -2.573213         1.466144        -0.987194
 H        -1.866071         2.612294         0.063943
 H         0.542986         1.605052        -0.206859
 H        -2.051798        -0.936679        -0.977675
 H        -0.967011        -1.715350         0.160280
