19
Iteration:  4976charge 0 multiplicity 1
 O        -3.883363        -1.497711         1.071271
 C        -2.760209        -0.675688         1.123091
 C        -1.868526        -0.609650         2.367452
 C        -1.530510         0.846665         1.883341
 C        -2.757618         0.957953         1.061465
 C        -1.925949         1.565122        -0.104865
 C        -0.973278         0.504122         0.415299
 O         0.465641         0.538540         0.009018
 C        -1.625481        -0.850742         0.021342
 H        -4.486025        -1.345480         1.796574
 H        -2.481020        -0.616327         3.257688
 H        -1.045297        -1.285188         2.498869
 H        -1.121436         1.553539         2.544277
 H        -3.678292         1.524277         1.448166
 H        -2.070295         1.635472        -1.199139
 H        -1.555447         2.570047         0.132171
 H         0.610718         1.407612        -0.406191
 H        -1.999502        -0.750483        -1.037160
 H        -0.942361        -1.695207         0.146801
