19
Iteration:  2823charge 0 multiplicity 1
 O        -3.992230        -1.253717         1.003412
 C        -2.609715        -0.712630         1.209774
 C        -1.973575        -0.635866         2.595529
 C        -1.613355         0.715442         2.012489
 C        -2.718664         0.853958         1.086386
 C        -1.972843         1.494816        -0.129133
 C        -0.865561         0.563808         0.325294
 O         0.374016         0.650921        -0.290413
 C        -1.386065        -0.895251         0.179725
 H        -4.143016        -1.947352         0.369977
 H        -2.552574        -0.587478         3.557081
 H        -1.092584        -1.242336         2.839194
 H        -1.229452         1.520588         2.545357
 H        -3.643969         1.151344         1.425703
 H        -2.357581         1.461477        -1.219675
 H        -1.798074         2.455705         0.461811
 H         0.306285         1.475749        -0.795702
 H        -1.938148        -0.961927        -0.788468
 H        -0.733555        -1.771943         0.504665
