19
Iteration:  3177charge 0 multiplicity 1
 O        -3.871755        -1.428363         0.931486
 C        -2.679330        -0.652864         1.162686
 C        -1.941001        -0.460896         2.515888
 C        -1.504048         0.840939         1.937411
 C        -2.783923         0.941837         1.126196
 C        -2.015107         1.485186        -0.050547
 C        -0.892235         0.477566         0.372395
 O         0.426617         0.578896        -0.152825
 C        -1.591494        -0.895428         0.178253
 H        -3.806732        -2.336660         1.164020
 H        -2.669855        -0.295681         3.309201
 H        -1.319910        -1.353404         2.762248
 H        -1.067616         1.675511         2.435967
 H        -3.685266         1.412544         1.409384
 H        -2.374176         1.335007        -1.071266
 H        -1.543713         2.481856        -0.015015
 H         0.405855         0.924994        -1.034556
 H        -1.906541        -0.937253        -0.925152
 H        -0.776118        -1.632808         0.273053
