19
Iteration:  1331charge 0 multiplicity 1
 O        -3.951142        -1.313687         0.905954
 C        -2.681315        -0.697269         1.185458
 C        -1.910524        -0.590052         2.643117
 C        -1.328067         0.699771         1.964063
 C        -2.732663         0.861290         1.105528
 C        -2.102406         1.305086        -0.142427
 C        -0.898712         0.457904         0.320569
 O         0.348098         0.920899        -0.189179
 C        -1.474781        -0.973497         0.186929
 H        -4.646028        -0.626062         1.086861
 H        -2.665140        -0.170903         3.279142
 H        -1.301878        -1.263849         3.231895
 H        -0.687571         1.529680         2.294855
 H        -3.601550         1.182675         1.680350
 H        -2.448550         1.238313        -1.154182
 H        -1.770585         2.284366        -0.004481
 H         0.255472         0.782798        -1.157613
 H        -1.799429        -1.160517        -0.828263
 H        -0.892980        -1.750660         0.611959
