19
Iteration:  3091charge 0 multiplicity 1
 O        -3.826961        -1.374491         1.144261
 C        -2.628100        -0.659635         1.126611
 C        -1.731526        -0.563668         2.401314
 C        -1.512923         0.831473         1.837857
 C        -2.844591         0.855740         1.022712
 C        -2.149629         1.414144        -0.204286
 C        -0.955481         0.563090         0.402207
 O         0.417525         0.530430         0.077058
 C        -1.643952        -0.833712         0.054825
 H        -4.339111        -0.724398         0.624970
 H        -2.327912        -0.719259         3.298628
 H        -0.881580        -1.241447         2.328025
 H        -1.256038         1.744565         2.335625
 H        -3.647164         1.299411         1.503127
 H        -2.291007         1.243925        -1.306756
 H        -2.000318         2.545901        -0.038966
 H         1.130178         1.016407         0.541512
 H        -2.068291        -0.798851        -0.934914
 H        -0.925731        -1.641895         0.092224
