19
Iteration:   194charge 0 multiplicity 1
 O        -3.614841        -1.722464         1.209402
 C        -2.767732        -0.619719         1.111650
 C        -1.868498        -0.440889         2.412249
 C        -1.516805         0.857476         1.848791
 C        -2.813474         1.034959         1.082494
 C        -2.044917         1.689280        -0.127190
 C        -0.950249         0.552908         0.353616
 O         0.375476         0.382044        -0.063441
 C        -1.708997        -0.763632         0.000831
 H        -4.311241        -1.810431         0.483954
 H        -2.544493        -0.193356         3.268408
 H        -1.083318        -1.224025         2.704925
 H        -0.805960         1.479455         2.415247
 H        -3.600889         1.545006         1.483513
 H        -2.345253         1.435401        -1.248736
 H        -1.786964         2.708665         0.091623
 H         0.901853         0.776753         0.649503
 H        -2.199428        -0.841062        -1.016713
 H        -1.094418        -1.649593         0.316973
