19
Iteration:   877
 O        -3.648793        -1.702092         1.265218
 C        -2.692679        -0.671365         1.142175
 C        -1.958236        -0.500326         2.401593
 C        -1.501343         0.824118         1.825873
 C        -2.827680         1.029421         1.010460
 C        -1.987391         1.700507        -0.117568
 C        -0.980364         0.594440         0.309881
 O         0.424639         0.461219        -0.049484
 C        -1.680540        -0.738940         0.063272
 H        -4.288938        -1.717040         0.580448
 H        -2.765678        -0.419518         3.121050
 H        -1.226524        -1.290920         2.648116
 H        -1.021415         1.560602         2.378744
 H        -3.715510         1.623843         1.383289
 H        -2.308438         1.839395        -1.165161
 H        -1.647201         2.683770         0.396411
 H         0.603988        -0.479836         0.050840
 H        -2.239013        -0.665231        -0.901323
 H        -1.008545        -1.624140         0.105908
