19
Iteration:  3745
 O        -3.872384        -1.419340         1.027089
 C        -2.693984        -0.683599         1.123183
 C        -1.956356        -0.524673         2.446574
 C        -1.461764         0.758718         1.891867
 C        -2.747188         0.857740         1.123988
 C        -1.989700         1.504846        -0.167760
 C        -0.852151         0.492578         0.438537
 O         0.377063         0.659552        -0.150865
 C        -1.598523        -0.868658         0.112413
 H        -4.597659        -0.735893         1.059133
 H        -2.608735        -0.326144         3.300992
 H        -1.364683        -1.372785         2.686613
 H        -0.946004         1.660331         2.297164
 H        -3.668500         1.275616         1.555400
 H        -2.392437         1.354939        -1.130586
 H        -1.807256         2.540277         0.139782
 H         1.028352         0.511502         0.617601
 H        -1.813018        -0.933511        -0.926943
 H        -1.058223        -1.747828         0.418866
