19
Iteration:  1858
 O        -3.903576        -1.461949         0.936345
 C        -2.762477        -0.671474         1.179741
 C        -1.980306        -0.503102         2.542589
 C        -1.348587         0.736066         1.863794
 C        -2.700793         0.934271         1.192981
 C        -2.026340         1.496760        -0.089543
 C        -0.925652         0.506526         0.305466
 O         0.391911         0.647115        -0.185790
 C        -1.542276        -0.868397         0.163741
 H        -3.712922        -2.363617         1.169696
 H        -2.736357        -0.208723         3.268871
 H        -1.461237        -1.343469         3.008530
 H        -0.998666         1.607636         2.473386
 H        -3.570442         1.490800         1.617231
 H        -2.392498         1.360329        -1.105726
 H        -1.871089         2.591776         0.195625
 H         0.439866         1.535796        -0.591295
 H        -1.861282        -1.037392        -0.859978
 H        -0.961818        -1.649373         0.572822
