19
Iteration:  4689
 O        -3.852386        -1.446657         1.159324
 C        -2.759526        -0.570724         1.101977
 C        -1.991499        -0.542841         2.469668
 C        -1.487736         0.758262         1.887530
 C        -2.779718         0.971650         1.061375
 C        -1.948918         1.477326        -0.133538
 C        -0.928460         0.499818         0.268414
 O         0.459590         0.628496         0.041423
 C        -1.604432        -0.897250         0.098956
 H        -4.128419        -1.606559         0.223800
 H        -2.725613        -0.532244         3.254116
 H        -1.079593        -1.160377         2.629400
 H        -0.864621         1.550236         2.399787
 H        -3.672298         1.473195         1.289303
 H        -2.373466         1.366141        -1.119527
 H        -1.430277         2.370983         0.062187
 H         0.545742         0.528893        -0.949379
 H        -1.708179        -1.046173        -0.978721
 H        -1.028219        -1.689094         0.610842
