19
Iteration:  2471charge 0 multiplicity 1
 O        -3.893888        -1.264532         0.907953
 C        -2.650166        -0.683460         1.238008
 C        -1.887447        -0.528230         2.636890
 C        -1.496606         0.821093         1.966450
 C        -2.801759         0.900679         1.116474
 C        -2.138064         1.478029        -0.119266
 C        -0.923215         0.420545         0.313346
 O         0.388121         0.583309        -0.216910
 C        -1.453050        -1.000374         0.196876
 H        -3.992447        -1.064168        -0.000282
 H        -2.527054        -0.592287         3.545785
 H        -1.007940        -1.251070         2.767610
 H        -0.969590         1.705345         2.486684
 H        -3.877805         1.065015         1.449816
 H        -2.629798         1.415335        -1.137049
 H        -1.840524         2.574489        -0.151648
 H         0.684334         1.510977        -0.155042
 H        -1.701502        -1.225544        -0.898629
 H        -0.596564        -1.625449         0.522389
