19
Iteration:   100charge 0 multiplicity 1
 O        -3.962407        -1.286854         1.011237
 C        -2.636009        -0.707303         1.158947
 C        -1.864955        -0.539237         2.445192
 C        -1.348614         0.792674         1.817948
 C        -2.679985         0.881035         1.130528
 C        -2.208322         1.350022        -0.222742
 C        -0.944267         0.492569         0.311821
 O         0.410434         0.844025         0.040804
 C        -1.549726        -0.984459         0.148427
 H        -4.143327        -1.931276         1.658242
 H        -2.507670        -0.269196         3.294487
 H        -1.241846        -1.349825         2.796964
 H        -0.802668         1.610849         2.199200
 H        -3.567741         1.378725         1.650070
 H        -2.773716         1.052129        -1.078510
 H        -2.103117         2.458324        -0.210254
 H         0.923975         0.229969        -0.501245
 H        -1.939032        -1.102212        -0.856235
 H        -0.981540        -1.883476         0.403699
