19
Iteration:  2369charge 0 multiplicity 1
 O        -3.826222        -1.426242         1.109790
 C        -2.628716        -0.667124         1.177260
 C        -1.884644        -0.535893         2.426951
 C        -1.509537         0.899333         1.906244
 C        -2.819328         0.903330         1.069618
 C        -2.066796         1.520728        -0.192710
 C        -0.940579         0.567402         0.390552
 O         0.408881         0.523396        -0.118198
 C        -1.561879        -0.831186         0.144497
 H        -4.054075        -1.669654         0.157335
 H        -2.613909        -0.424661         3.242019
 H        -1.203355        -1.374449         2.630816
 H        -1.194507         1.802222         2.404184
 H        -3.783480         1.211345         1.427361
 H        -2.363806         1.192591        -1.201992
 H        -1.922422         2.615151        -0.003567
 H         0.977543         0.069641         0.525357
 H        -2.004295        -1.014861        -0.840092
 H        -0.971312        -1.718847         0.398135
