19
Iteration:  3520charge 0 multiplicity 1
 O        -3.864704        -1.478769         1.118027
 C        -2.704390        -0.696443         1.210305
 C        -1.958783        -0.493688         2.497572
 C        -1.387175         0.712618         1.815596
 C        -2.691754         1.020362         1.083183
 C        -2.045221         1.474726        -0.349291
 C        -0.925471         0.491307         0.325302
 O         0.470607         0.746476         0.050772
 C        -1.669405        -0.943221         0.072959
 H        -4.578572        -1.089556         0.629040
 H        -2.497887        -0.303144         3.408214
 H        -1.275079        -1.306231         2.825054
 H        -1.044249         1.475214         2.434092
 H        -3.721151         1.439312         1.245674
 H        -2.638837         1.157197        -1.217398
 H        -1.803030         2.506019        -0.390929
 H         0.877695         0.519402         0.883437
 H        -2.067168        -1.011903        -0.998224
 H        -1.103199        -1.938349         0.286775
