19
Iteration:   928charge 0 multiplicity 1
 O        -3.860039        -1.426960         1.156643
 C        -2.694555        -0.649238         1.178128
 C        -1.822633        -0.587731         2.428231
 C        -1.378020         0.772648         1.812891
 C        -2.719845         0.931840         1.085353
 C        -2.092683         1.481170        -0.208576
 C        -0.947843         0.482654         0.356519
 O         0.391008         0.734851         0.083056
 C        -1.692883        -0.898029         0.083592
 H        -4.198413        -1.579835         0.239333
 H        -2.253087        -0.466355         3.442674
 H        -1.069904        -1.366487         2.243371
 H        -0.925455         1.609023         2.338195
 H        -3.725711         1.367352         1.370724
 H        -2.544066         1.295789        -1.168673
 H        -1.726327         2.488223        -0.078036
 H         0.664978         0.514310        -0.805201
 H        -2.220431        -0.921495        -0.899011
 H        -1.065594        -1.744968         0.337568
