19
Iteration:    61
 O        -3.643137        -1.745491         1.144210
 C        -2.759413        -0.690968         1.151155
 C        -1.925192        -0.521010         2.434668
 C        -1.516850         0.892783         1.842195
 C        -2.774317         1.070596         1.019676
 C        -1.898663         1.658514        -0.176660
 C        -0.955005         0.611617         0.368864
 O         0.317680         0.507792        -0.086698
 C        -1.695761        -0.790567         0.095987
 H        -4.247978        -1.605584         1.949189
 H        -2.675786        -0.580125         3.251597
 H        -1.032529        -1.169176         2.469232
 H        -1.055027         1.690429         2.491195
 H        -3.736373         1.545749         1.292392
 H        -2.238465         1.589692        -1.249092
 H        -1.706936         2.694629         0.213583
 H         0.548367        -0.367854         0.276823
 H        -2.069669        -0.567706        -0.922652
 H        -1.022588        -1.687409         0.143573
