19
Iteration:  2793charge 0 multiplicity 1
 O        -3.844282        -1.407331         0.852868
 C        -2.700199        -0.575689         1.163708
 C        -1.968071        -0.511274         2.469159
 C        -1.300856         0.734802         1.912943
 C        -2.726960         1.005788         1.234128
 C        -2.137773         1.380030        -0.089001
 C        -0.944499         0.471595         0.401154
 O         0.341662         0.607100        -0.172674
 C        -1.555112        -0.849672         0.173153
 H        -3.497202        -2.358515         0.761564
 H        -2.560548        -0.118143         3.311903
 H        -1.313241        -1.380816         2.715595
 H        -0.720141         1.424652         2.536896
 H        -3.650011         1.456206         1.698735
 H        -2.663607         1.263323        -1.046575
 H        -1.938734         2.468901        -0.025341
 H         0.677944         1.528863         0.010173
 H        -1.951796        -1.030557        -0.826392
 H        -1.092133        -1.799038         0.460744
