19
Iteration:   601charge 0 multiplicity 1
 O        -3.769414        -1.504344         0.949395
 C        -2.677602        -0.656859         1.170078
 C        -1.928203        -0.563326         2.539124
 C        -1.351944         0.723867         1.849059
 C        -2.737820         0.947956         1.144857
 C        -2.117693         1.507804        -0.098884
 C        -0.980476         0.549592         0.295343
 O         0.359331         0.683408        -0.106066
 C        -1.576764        -0.886160         0.193586
 H        -4.634296        -1.143495         1.306914
 H        -2.605184        -0.130722         3.338714
 H        -1.250586        -1.358143         2.912923
 H        -0.739005         1.538276         2.362487
 H        -3.652510         1.420245         1.594054
 H        -2.740531         1.541286        -1.055326
 H        -1.752101         2.512451         0.123135
 H         0.397664         0.620986        -1.069846
 H        -1.981360        -1.180108        -0.864291
 H        -0.779179        -1.647511         0.409552
