19
Iteration:   779charge 0 multiplicity 1
 O        -3.979086        -1.321900         0.993331
 C        -2.676747        -0.654498         1.113007
 C        -1.900351        -0.564861         2.484946
 C        -1.436773         0.726185         1.865665
 C        -2.753113         0.912527         1.123352
 C        -2.043860         1.278854        -0.133033
 C        -0.866268         0.461760         0.359399
 O         0.392486         0.923086        -0.161461
 C        -1.582211        -0.950369         0.163382
 H        -4.168879        -1.586564         1.881383
 H        -2.477532        -0.620950         3.364283
 H        -1.014473        -1.146251         2.709016
 H        -0.977121         1.553627         2.289186
 H        -3.621556         1.371257         1.709775
 H        -2.451816         1.069628        -1.120988
 H        -1.677298         2.377273        -0.128282
 H         1.126882         0.458035         0.238172
 H        -1.856942        -1.202221        -0.841051
 H        -1.141264        -1.876419         0.526270
