19
Iteration:  3380
 O        -4.011388        -1.360007         1.280462
 C        -2.698188        -0.711277         1.049471
 C        -1.808471        -0.554233         2.328612
 C        -1.443940         0.819654         1.847908
 C        -2.812786         0.889587         1.042487
 C        -2.000026         1.420287        -0.194446
 C        -0.901682         0.548825         0.364066
 O         0.442254         0.669932         0.070951
 C        -1.518791        -0.857618        -0.006188
 H        -4.553822        -1.582472         0.550898
 H        -2.374360        -0.631680         3.218819
 H        -1.149716        -1.387982         2.480060
 H        -1.232246         1.619980         2.542700
 H        -3.793706         1.373801         1.343279
 H        -2.284625         1.059158        -1.248842
 H        -1.990648         2.497340        -0.083367
 H         0.816896         0.516309         0.938601
 H        -1.888968        -0.808202        -0.987041
 H        -0.984972        -1.754069         0.117739
