19
Iteration:  2636charge 0 multiplicity 1
 O        -3.969325        -1.425928         1.031189
 C        -2.744719        -0.709472         1.103510
 C        -1.979209        -0.549205         2.506013
 C        -1.431274         0.750504         1.957572
 C        -2.751444         0.960255         1.100355
 C        -1.980277         1.489003         0.015569
 C        -0.874903         0.557590         0.389099
 O         0.358608         0.632380        -0.349957
 C        -1.451459        -0.908955         0.229153
 H        -4.177021        -1.650771         0.082441
 H        -2.603622        -0.337217         3.413365
 H        -1.274146        -1.367419         2.781776
 H        -0.922749         1.373946         2.665211
 H        -3.703491         1.276993         1.390358
 H        -2.514431         1.453155        -1.007623
 H        -1.607391         2.542503         0.207107
 H         0.572600         1.611290        -0.333639
 H        -1.489201        -1.248117        -0.835783
 H        -0.706304        -1.520758         0.788289
