19
Iteration:  2568charge 0 multiplicity 1
 O        -3.828485        -1.437579         1.239881
 C        -2.674309        -0.653973         1.137204
 C        -1.731888        -0.598689         2.296784
 C        -1.489249         0.799325         1.788064
 C        -2.841629         0.893443         1.065016
 C        -2.134327         1.562338        -0.208265
 C        -1.008620         0.626572         0.287287
 O         0.453660         0.392526         0.174667
 C        -1.631337        -0.744157         0.025051
 H        -4.237787        -1.409883         0.399971
 H        -2.056534        -0.633268         3.335131
 H        -0.870825        -1.304068         2.193545
 H        -0.995699         1.737244         2.215342
 H        -3.770013         1.454461         1.472460
 H        -2.723665         1.325413        -1.161407
 H        -1.920421         2.679419        -0.072911
 H         0.889569         1.124765         0.648424
 H        -2.037112        -0.890320        -1.004870
 H        -0.895808        -1.474837         0.330786
