19
Iteration:   669charge 0 multiplicity 1
 O        -3.869439        -1.351334         1.108460
 C        -2.718033        -0.681975         1.120565
 C        -1.819303        -0.574101         2.433962
 C        -1.429739         0.747757         1.799161
 C        -2.770653         0.904515         1.110861
 C        -2.184996         1.397086        -0.137171
 C        -0.932491         0.410466         0.263888
 O         0.479880         0.849724         0.045990
 C        -1.544499        -0.983100         0.153239
 H        -4.641759        -0.745952         0.920182
 H        -2.497306        -0.287107         3.278079
 H        -1.093506        -1.358416         2.805688
 H        -0.837660         1.490139         2.267348
 H        -3.703099         1.432764         1.597147
 H        -2.786999         1.173567        -1.030165
 H        -1.940896         2.512826        -0.118275
 H         0.557712         0.859222        -0.948949
 H        -1.824053        -1.288219        -0.910891
 H        -0.947225        -1.891381         0.414229
