19
Iteration:  2926charge 0 multiplicity 1
 O        -3.840546        -1.470408         1.325513
 C        -2.762012        -0.758868         1.048934
 C        -1.921092        -0.586569         2.364969
 C        -1.551809         0.757393         1.850578
 C        -2.845585         0.914394         1.011863
 C        -1.983078         1.691170        -0.179349
 C        -0.950494         0.571851         0.343801
 O         0.456831         0.571685        -0.061095
 C        -1.485395        -0.877750         0.060128
 H        -4.558407        -1.437798         0.605075
 H        -2.642238        -0.493970         3.180192
 H        -1.076562        -1.260259         2.671996
 H        -1.134314         1.571759         2.524163
 H        -3.741965         1.473450         1.476481
 H        -2.184988         1.623884        -1.273666
 H        -1.787666         2.796278         0.054700
 H         1.022916         0.806010         0.725335
 H        -1.729873        -1.146782        -0.951061
 H        -0.785794        -1.582084         0.418152
