19
Iteration:  4175
 O        -3.830347        -1.399305         1.211394
 C        -2.680231        -0.606076         1.016689
 C        -1.864042        -0.642225         2.354935
 C        -1.541340         0.774244         1.905995
 C        -2.814944         0.907238         1.073003
 C        -2.003751         1.556461        -0.096944
 C        -0.961621         0.519187         0.321562
 O         0.456379         0.626545         0.159626
 C        -1.602636        -0.875705        -0.080322
 H        -4.622478        -0.946815         0.954090
 H        -2.506787        -0.728969         3.246245
 H        -1.025096        -1.341531         2.489683
 H        -1.137050         1.616127         2.406084
 H        -3.814485         1.316476         1.265078
 H        -2.238472         1.556103        -1.183482
 H        -1.574748         2.440030         0.330836
 H         0.700692        -0.142551        -0.350269
 H        -1.917527        -0.682150        -1.181881
 H        -1.005881        -1.800287        -0.165566
