19
Iteration:   213charge 0 multiplicity 1
 O        -3.660425        -1.715205         1.362136
 C        -2.722399        -0.708839         1.114508
 C        -1.839631        -0.523836         2.319367
 C        -1.463033         0.833536         1.767270
 C        -2.845134         1.122084         1.038956
 C        -2.009602         1.609477        -0.153746
 C        -1.000616         0.582901         0.288698
 O         0.403155         0.409373         0.152655
 C        -1.753909        -0.718138        -0.083627
 H        -4.178811        -1.764037         0.545553
 H        -2.359092        -0.618589         3.304259
 H        -1.109956        -1.374988         2.337574
 H        -1.023873         1.857308         2.059418
 H        -3.728928         1.635326         1.522629
 H        -2.360148         1.703210        -1.196976
 H        -1.445891         2.577012         0.073822
 H         0.763056         1.225996         0.507112
 H        -2.330582        -0.492274        -1.028509
 H        -1.244794        -1.722301        -0.171358
