19
Iteration:  2393
 O        -3.801872        -1.679588         1.269094
 C        -2.803437        -0.654621         1.144680
 C        -1.965273        -0.421068         2.477017
 C        -1.490154         0.774126         1.810102
 C        -2.813248         0.988641         1.036388
 C        -1.873688         1.602350        -0.164063
 C        -0.942698         0.485677         0.293627
 O         0.428575         0.568260        -0.016694
 C        -1.639174        -0.765259        -0.043616
 H        -4.138893        -2.074425         0.448800
 H        -2.633386        -0.180961         3.334397
 H        -1.163325        -1.188114         2.767058
 H        -0.804603         1.578628         2.243159
 H        -3.685020         1.628380         1.419645
 H        -2.148161         1.599504        -1.253645
 H        -1.557869         2.589320         0.288102
 H         0.958182         0.744462         0.753816
 H        -2.223840        -0.821332        -1.014990
 H        -1.051229        -1.703882         0.001739
