19
Iteration:  2102
 O        -3.849027        -1.449732         1.170177
 C        -2.707560        -0.636683         1.149951
 C        -1.933824        -0.534253         2.478152
 C        -1.575181         0.845436         1.806045
 C        -2.851311         0.935190         0.944378
 C        -2.021837         1.514041        -0.174612
 C        -0.895706         0.507503         0.349214
 O         0.463935         0.564740        -0.101601
 C        -1.509114        -0.860236         0.107191
 H        -3.777562        -2.147197         1.869613
 H        -2.680932        -0.294580         3.229933
 H        -1.057039        -1.115819         2.725267
 H        -1.167804         1.719479         2.479188
 H        -3.859808         1.348626         1.358122
 H        -2.431390         1.506806        -1.231580
 H        -1.845040         2.575580         0.030424
 H         1.050172         0.559645         0.648415
 H        -1.969868        -0.996100        -0.848886
 H        -0.916546        -1.731438         0.380195
