19
Iteration:  2499charge 0 multiplicity 1
 O        -3.809347        -1.464464         0.925990
 C        -2.776177        -0.574635         1.192763
 C        -2.100252        -0.490305         2.522203
 C        -1.265067         0.672076         1.897259
 C        -2.688377         0.985173         1.172358
 C        -2.072725         1.443924        -0.128347
 C        -0.887443         0.427643         0.437964
 O         0.315394         0.686561        -0.297473
 C        -1.516328        -0.911693         0.289841
 H        -4.076558        -1.334209         0.011061
 H        -2.748104        -0.119781         3.311268
 H        -1.604615        -1.380552         2.874231
 H        -0.777797         1.358337         2.576466
 H        -3.572318         1.444344         1.682300
 H        -2.554832         0.995325        -1.013907
 H        -1.861411         2.522925        -0.189930
 H         0.531699         1.610580        -0.313832
 H        -1.657227        -1.157824        -0.738660
 H        -0.848830        -1.606593         0.802977
