19
Iteration:   134
 O        -4.001334        -1.159151         0.990433
 C        -2.706277        -0.676753         1.239367
 C        -1.910556        -0.630955         2.502467
 C        -1.378154         0.782321         1.857483
 C        -2.673104         0.903172         1.118541
 C        -2.124356         1.197983        -0.196832
 C        -0.877449         0.397129         0.351268
 O         0.332412         0.905525        -0.139244
 C        -1.421003        -1.017154         0.268187
 H        -3.905061        -1.931226         0.442200
 H        -2.488834        -0.364624         3.402845
 H        -1.285308        -1.496691         2.650705
 H        -0.773188         1.578645         2.313675
 H        -3.509351         1.601935         1.574008
 H        -2.580873         0.896835        -1.072797
 H        -1.874255         2.333697        -0.224543
 H         0.041317         1.649709        -0.682457
 H        -1.752711        -1.314579        -0.731917
 H        -0.831952        -1.835954         0.697967
