19
Iteration:   995
 O        -3.824800        -1.522873         1.006665
 C        -2.745528        -0.583018         1.180644
 C        -2.036730        -0.525269         2.582794
 C        -1.397371         0.714605         1.946749
 C        -2.715072         1.067504         1.192322
 C        -1.981877         1.402805        -0.022970
 C        -0.916106         0.408225         0.320369
 O         0.292320         0.740366        -0.399835
 C        -1.512636        -0.905896         0.187717
 H        -4.021974        -1.405300         0.042317
 H        -2.649405        -0.180610         3.425403
 H        -1.355299        -1.382238         2.701940
 H        -0.870614         1.417161         2.459155
 H        -3.647507         1.432675         1.733377
 H        -2.500528         1.125302        -0.898188
 H        -1.459811         2.374012        -0.073448
 H         0.709485         1.475146         0.140190
 H        -1.887624        -1.090453        -0.852328
 H        -0.887662        -1.679088         0.625078
