19
Iteration:  4984
 O        -3.872238        -1.507686         1.037816
 C        -2.772494        -0.725495         1.123677
 C        -1.879977        -0.587781         2.413328
 C        -1.454995         0.736295         1.892024
 C        -2.779165         0.946906         1.081239
 C        -1.956426         1.580142        -0.148975
 C        -0.995843         0.622620         0.431556
 O         0.546136         0.542923         0.011101
 C        -1.706601        -0.821839         0.056107
 H        -4.616315        -1.201780         1.567314
 H        -2.463694        -0.519299         3.325062
 H        -0.992486        -1.246104         2.647390
 H        -1.097603         1.634899         2.505513
 H        -3.600075         1.620151         1.385680
 H        -2.108492         1.231647        -1.289478
 H        -1.711727         2.622625         0.193919
 H         0.652367         1.256467        -0.688831
 H        -2.096082        -0.823862        -0.981279
 H        -0.950723        -1.643398         0.039610
