19
Iteration:  2892
 O        -3.689766        -1.574795         1.066882
 C        -2.738992        -0.647982         1.161214
 C        -1.813890        -0.461126         2.479253
 C        -1.458175         0.842952         1.771090
 C        -2.829395         0.997080         1.122407
 C        -2.066070         1.537921        -0.230032
 C        -0.976952         0.501203         0.331699
 O         0.427346         0.453123         0.076901
 C        -1.734738        -0.797650         0.043429
 H        -4.310121        -1.324638         0.327488
 H        -2.357707        -0.274506         3.425777
 H        -1.018182        -1.230028         2.687132
 H        -0.981268         1.702532         2.333499
 H        -3.639003         1.578148         1.725488
 H        -2.410235         1.222222        -1.256871
 H        -1.882086         2.649227        -0.012180
 H         0.923601         0.825538         0.845024
 H        -2.310479        -0.681857        -0.887733
 H        -1.143767        -1.684639         0.035941
