19
Iteration:   733
 O        -3.572740        -1.718998         1.102312
 C        -2.721352        -0.598504         1.143956
 C        -1.876711        -0.400637         2.394385
 C        -1.540791         0.924387         1.876553
 C        -2.793062         1.030862         1.139655
 C        -2.048750         1.613543        -0.055983
 C        -0.979493         0.508987         0.252752
 O         0.408507         0.398664         0.016810
 C        -1.716129        -0.750279        -0.011371
 H        -4.562501        -1.630324         1.160670
 H        -2.615541        -0.301037         3.215977
 H        -1.319070        -1.215201         2.824086
 H        -1.114443         1.810656         2.282218
 H        -3.674173         1.601068         1.537260
 H        -2.572815         1.750872        -1.060163
 H        -1.681111         2.645339         0.256120
 H         0.724151        -0.476632        -0.231828
 H        -2.059506        -0.825398        -1.086658
 H        -1.120760        -1.665561        -0.008186
