19
Iteration:   525
 O        -3.952096        -1.413687         1.201812
 C        -2.635902        -0.700659         1.095944
 C        -1.735751        -0.595493         2.275565
 C        -1.376572         0.802572         1.799581
 C        -2.775632         0.884033         1.121947
 C        -2.180730         1.539866        -0.117058
 C        -0.960167         0.528562         0.255020
 O         0.418326         0.680197         0.174371
 C        -1.629796        -0.801511        -0.034519
 H        -4.051190        -2.211379         1.663493
 H        -2.285295        -0.470281         3.269270
 H        -0.972363        -1.392454         2.423329
 H        -0.990010         1.633151         2.490142
 H        -3.726365         1.335877         1.560631
 H        -2.665443         1.480410        -1.134992
 H        -1.849044         2.530877         0.112585
 H         0.912450         0.107793        -0.434199
 H        -2.150989        -0.980187        -1.074576
 H        -0.900553        -1.659654         0.026185
