19
Iteration:  3277
 O        -3.904540        -1.453690         1.057192
 C        -2.701197        -0.629355         1.082564
 C        -1.968242        -0.520434         2.497219
 C        -1.417913         0.790268         1.898384
 C        -2.827734         0.956747         1.060983
 C        -2.065485         1.562287        -0.063211
 C        -0.939350         0.532293         0.421104
 O         0.416721         0.592336        -0.137663
 C        -1.427740        -0.895427         0.128683
 H        -4.060219        -1.914837         0.193200
 H        -2.629876        -0.190062         3.318036
 H        -1.167179        -1.214997         2.771101
 H        -1.110857         1.680245         2.482589
 H        -3.654505         1.386715         1.558204
 H        -2.567149         1.519801        -1.028084
 H        -1.650886         2.564293         0.208802
 H         0.386636        -0.295095        -0.589155
 H        -1.604472        -1.210165        -0.944374
 H        -0.716802        -1.578544         0.682009
