19
Iteration:  4056charge 0 multiplicity 1
 O        -3.959784        -1.276058         0.987264
 C        -2.769506        -0.633238         1.066575
 C        -1.918977        -0.645382         2.435749
 C        -1.384961         0.665523         1.905026
 C        -2.698248         0.952145         1.148305
 C        -1.952306         1.471904        -0.108457
 C        -0.963101         0.453833         0.342737
 O         0.354522         0.787448        -0.034855
 C        -1.560061        -0.916957         0.081256
 H        -3.676969        -2.105204         1.458984
 H        -2.660993        -0.568988         3.278163
 H        -1.134008        -1.468775         2.536073
 H        -0.781515         1.445483         2.277783
 H        -3.662537         1.408608         1.386122
 H        -2.414575         1.375443        -1.183554
 H        -1.668957         2.532135         0.034426
 H         0.908815         0.524812         0.766210
 H        -2.085201        -1.185947        -0.925910
 H        -0.932746        -1.781932         0.343578
