19
Iteration:  2304
 O        -3.887384        -1.398649         1.149282
 C        -2.753257        -0.633213         1.159085
 C        -2.016411        -0.536230         2.546925
 C        -1.426784         0.724070         1.829152
 C        -2.797719         0.928174         1.052568
 C        -2.029289         1.375335        -0.191214
 C        -0.821472         0.396693         0.340917
 O         0.473318         0.847680        -0.062191
 C        -1.496507        -1.003127         0.136094
 H        -4.308523        -1.096989         0.345208
 H        -2.760151        -0.080437         3.247710
 H        -1.498975        -1.345149         3.128506
 H        -0.932307         1.539634         2.268142
 H        -3.640088         1.504767         1.357510
 H        -2.558300         1.116526        -1.163142
 H        -1.779110         2.484718        -0.168719
 H         0.176623         1.311698        -0.853351
 H        -1.860946        -1.291629        -0.890803
 H        -0.858399        -1.832227         0.535137
