19
Iteration:  3556charge 0 multiplicity 1
 O        -3.763496        -1.523042         1.211874
 C        -2.775648        -0.630031         1.064853
 C        -1.965879        -0.487651         2.443118
 C        -1.522496         0.820285         1.854704
 C        -2.864973         0.937629         0.962102
 C        -1.961576         1.582181        -0.132544
 C        -0.888758         0.521453         0.357417
 O         0.422132         0.488790        -0.065773
 C        -1.585121        -0.862803         0.103768
 H        -4.486990        -1.161594         0.722893
 H        -2.455875        -0.244026         3.384104
 H        -1.249188        -1.308279         2.550634
 H        -1.157697         1.697167         2.468802
 H        -3.854641         1.263508         1.265774
 H        -2.202317         1.667011        -1.244274
 H        -1.635414         2.534309         0.344088
 H         1.150228         0.737158         0.464082
 H        -1.623833        -1.007782        -0.993875
 H        -1.001049        -1.694749         0.530092
