19
Iteration:  1509charge 0 multiplicity 1
 O        -3.914155        -1.279956         0.966752
 C        -2.687043        -0.627918         1.248019
 C        -1.875690        -0.552975         2.526168
 C        -1.386950         0.783131         1.805741
 C        -2.709057         0.931446         1.099271
 C        -2.200951         1.166896        -0.285469
 C        -0.951947         0.445034         0.318608
 O         0.338468         0.921265        -0.086049
 C        -1.427285        -1.039576         0.271330
 H        -4.694132        -0.642042         0.930153
 H        -2.408479        -0.257667         3.440777
 H        -1.159224        -1.385902         2.717341
 H        -0.801099         1.627290         2.335431
 H        -3.628141         1.362554         1.637187
 H        -2.579397         0.635630        -1.114464
 H        -1.947686         2.229717        -0.456979
 H         1.085952         0.497342         0.352057
 H        -1.758004        -1.232917        -0.765029
 H        -0.786088        -1.839444         0.693340
