19
Iteration:   815
 O        -4.012230        -1.145479         1.035002
 C        -2.696803        -0.700921         1.128910
 C        -1.972301        -0.593165         2.615084
 C        -1.345234         0.578523         1.851899
 C        -2.659227         0.849645         1.147735
 C        -2.112871         1.275549        -0.237810
 C        -0.959144         0.450546         0.275145
 O         0.328290         0.998617        -0.167053
 C        -1.421313        -0.944162         0.224844
 H        -4.002629        -2.005109         0.651042
 H        -2.708515        -0.285060         3.379236
 H        -1.329226        -1.457519         2.828856
 H        -0.692168         1.483419         2.243645
 H        -3.400413         1.357567         1.700928
 H        -2.514783         0.950837        -1.198975
 H        -1.743739         2.260911        -0.287437
 H         0.964350         0.510455         0.364252
 H        -1.675192        -1.337492        -0.758443
 H        -0.713962        -1.581556         0.785324
