19
Iteration:  4131
 O        -3.871267        -1.485651         0.961767
 C        -2.759528        -0.586708         1.133870
 C        -2.008735        -0.563191         2.447761
 C        -1.327534         0.723974         1.891684
 C        -2.770338         1.048298         1.197722
 C        -1.973087         1.521628        -0.079377
 C        -0.915200         0.437981         0.332167
 O         0.405741         0.718038        -0.042334
 C        -1.674599        -0.836493         0.099455
 H        -3.650160        -1.990213         0.177762
 H        -2.545558        -0.531381         3.401344
 H        -1.393747        -1.460094         2.570217
 H        -0.667065         1.374879         2.410468
 H        -3.532681         1.539528         1.823362
 H        -2.528649         1.388248        -1.019955
 H        -1.573979         2.482862         0.154246
 H         0.808294        -0.045565        -0.438030
 H        -1.916541        -1.185100        -0.958471
 H        -1.159623        -1.707383         0.562052
