19
Iteration:  3698charge 0 multiplicity 1
 O        -3.784912        -1.624373         0.986286
 C        -2.797317        -0.576493         1.143347
 C        -1.908900        -0.484800         2.346850
 C        -1.393713         0.789738         1.793082
 C        -2.760236         1.050121         1.098304
 C        -1.965302         1.528531        -0.111067
 C        -0.904637         0.559589         0.335382
 O         0.415141         0.586169         0.060361
 C        -1.779564        -0.842905         0.146314
 H        -4.251034        -1.791364         1.793767
 H        -2.567864        -0.406408         3.199780
 H        -1.192389        -1.270897         2.589523
 H        -1.001705         1.800731         2.184426
 H        -3.499860         1.623429         1.690390
 H        -2.234488         1.182662        -1.104953
 H        -1.568005         2.485310         0.000496
 H         0.872317        -0.229887         0.239000
 H        -2.228727        -0.887916        -0.912605
 H        -1.046896        -1.660860         0.213937
