19
Iteration:  4067charge 0 multiplicity 1
 O        -3.990658        -1.238635         0.940070
 C        -2.666830        -0.658613         1.151692
 C        -1.948374        -0.663744         2.490764
 C        -1.432212         0.727144         1.911907
 C        -2.742592         0.938662         1.113366
 C        -2.047005         1.520279        -0.102644
 C        -0.895359         0.434218         0.364582
 O         0.395095         0.765683        -0.118206
 C        -1.548777        -0.966338         0.095913
 H        -4.069688        -2.173865         1.113537
 H        -2.592067        -0.643334         3.410260
 H        -1.247812        -1.551070         2.628206
 H        -0.958392         1.432395         2.549298
 H        -3.540024         1.306445         1.761593
 H        -2.472815         1.408402        -1.182764
 H        -1.527081         2.470393         0.073989
 H         1.115074         0.620706         0.483686
 H        -1.748238        -1.034235        -1.045914
 H        -0.816598        -1.715493         0.412462
