19
Iteration:   530charge 0 multiplicity 1
 O        -3.936238        -1.448892         1.225580
 C        -2.639389        -0.715681         1.089061
 C        -1.742617        -0.599409         2.277347
 C        -1.395339         0.809752         1.751099
 C        -2.738911         0.922099         1.145566
 C        -2.144220         1.538733        -0.143194
 C        -1.001155         0.549251         0.244487
 O         0.395105         0.659570         0.227321
 C        -1.638469        -0.761249        -0.063964
 H        -3.903681        -2.284856         1.822053
 H        -2.294321        -0.511083         3.175856
 H        -0.984152        -1.385776         2.318235
 H        -0.968786         1.551284         2.359562
 H        -3.686388         1.302164         1.554363
 H        -2.559986         1.521673        -1.130042
 H        -1.771400         2.582700         0.091772
 H         0.738256        -0.025131        -0.376771
 H        -2.099514        -0.917392        -0.972599
 H        -0.965797        -1.599478        -0.013464
