19
Iteration:  4710charge 0 multiplicity 1
 O        -3.875779        -1.335513         0.962791
 C        -2.622833        -0.701777         1.125431
 C        -1.948466        -0.532380         2.526551
 C        -1.478753         0.858157         1.894399
 C        -2.783130         0.993379         1.096043
 C        -2.029749         1.431437        -0.113315
 C        -0.897564         0.507236         0.429448
 O         0.397734         0.575037        -0.061204
 C        -1.552845        -0.974410         0.201269
 H        -3.886754        -1.368898        -0.020921
 H        -2.710264        -0.392344         3.274769
 H        -1.159981        -1.191875         2.875345
 H        -0.962026         1.643463         2.500456
 H        -3.636544         1.436737         1.530776
 H        -2.371463         1.202365        -1.134457
 H        -1.931995         2.513370        -0.049791
 H         0.237667         0.561343        -1.041695
 H        -1.998075        -0.791881        -0.826234
 H        -0.920019        -1.907373         0.230915
