19
Iteration:  2922
 O        -3.843936        -1.503178         1.309915
 C        -2.763857        -0.744701         1.000976
 C        -1.875306        -0.573891         2.357275
 C        -1.544223         0.812942         1.843949
 C        -2.854356         0.938132         1.022851
 C        -1.998597         1.692057        -0.153105
 C        -0.967945         0.582503         0.327135
 O         0.455394         0.521393        -0.040051
 C        -1.486383        -0.866966         0.085817
 H        -4.534745        -1.408372         0.683843
 H        -2.583443        -0.503383         3.216169
 H        -1.081821        -1.258537         2.697139
 H        -1.111831         1.566292         2.487943
 H        -3.775059         1.438654         1.369391
 H        -2.216167         1.624075        -1.270690
 H        -1.914414         2.773439         0.197669
 H         1.016103         0.696281         0.708689
 H        -1.723371        -1.157488        -0.987113
 H        -0.722357        -1.632666         0.432866
