19
Iteration:  4199charge 0 multiplicity 1
 O        -3.897458        -1.466193         0.998099
 C        -2.741002        -0.679245         1.094811
 C        -1.827095        -0.629518         2.345204
 C        -1.379035         0.734476         1.782936
 C        -2.795222         1.007776         1.174086
 C        -2.044376         1.552056        -0.189591
 C        -0.970575         0.540708         0.350267
 O         0.438485         0.669897         0.217272
 C        -1.663690        -0.836078         0.087718
 H        -4.559829        -1.022866         1.528356
 H        -2.255008        -0.671955         3.333947
 H        -0.964755        -1.349032         2.386624
 H        -0.756285         1.482567         2.257631
 H        -3.623570         1.631118         1.464400
 H        -2.293566         1.196222        -1.219305
 H        -1.534059         2.481648        -0.081583
 H         0.769075        -0.012227        -0.348349
 H        -2.046436        -0.980143        -1.000139
 H        -1.094920        -1.775140         0.166365
