19
Iteration:  4893
 O        -3.895963        -1.229501         0.970360
 C        -2.674208        -0.631534         1.135629
 C        -1.975964        -0.611287         2.471442
 C        -1.454391         0.775604         1.851635
 C        -2.705837         0.927340         1.064341
 C        -2.040139         1.454088        -0.113746
 C        -0.942204         0.455489         0.378229
 O         0.318745         0.762644        -0.070076
 C        -1.519377        -0.990035         0.250290
 H        -3.737935        -2.202152         0.780372
 H        -2.671479        -0.570683         3.361234
 H        -1.147179        -1.338747         2.616401
 H        -0.961317         1.643505         2.312469
 H        -3.617452         1.289223         1.486257
 H        -2.323310         1.270322        -1.146722
 H        -1.411277         2.368445        -0.083359
 H         0.665337        -0.179709        -0.165210
 H        -1.826340        -1.112040        -0.789304
 H        -0.748842        -1.717198         0.441563
