19
Iteration:  2256charge 0 multiplicity 1
 O        -3.696729        -1.567249         1.183060
 C        -2.694833        -0.650924         1.169924
 C        -1.885021        -0.399958         2.460733
 C        -1.522017         0.867563         1.735157
 C        -2.892706         1.011682         1.054785
 C        -2.142032         1.564366        -0.259772
 C        -0.941669         0.536057         0.349003
 O         0.491820         0.412877         0.070877
 C        -1.673408        -0.824154         0.075011
 H        -3.768931        -1.781115         0.224310
 H        -2.345564        -0.425440         3.436221
 H        -1.123267        -1.164098         2.468804
 H        -1.017735         1.808908         2.139035
 H        -3.801812         1.473170         1.559963
 H        -2.348908         1.378714        -1.325671
 H        -1.721335         2.564928        -0.092666
 H         1.035618         0.470344         0.909508
 H        -2.271407        -0.859784        -0.825606
 H        -1.088330        -1.740258         0.103877
