19
Iteration:  3644charge 0 multiplicity 1
 O        -4.034105        -1.201332         1.005153
 C        -2.736116        -0.718333         1.121645
 C        -1.952682        -0.563706         2.473659
 C        -1.371930         0.757974         1.825564
 C        -2.761255         0.823831         1.048657
 C        -2.077542         1.382734        -0.119852
 C        -0.839881         0.551888         0.385587
 O         0.419631         0.731604        -0.029457
 C        -1.469279        -0.986220         0.191915
 H        -4.106210        -2.101201         1.299340
 H        -2.621744        -0.103033         3.199556
 H        -1.269456        -1.266513         2.915917
 H        -0.897574         1.617351         2.462181
 H        -3.706849         1.141311         1.505281
 H        -2.288688         1.434660        -1.187042
 H        -1.843969         2.436612         0.067860
 H         0.479310         0.587322        -0.955575
 H        -1.419783        -0.975608        -0.920709
 H        -0.745965        -1.707441         0.548313
