19
Iteration:  1062charge 0 multiplicity 1
 O        -3.807759        -1.498658         1.276448
 C        -2.695795        -0.713623         1.087979
 C        -1.613465        -0.598665         2.174312
 C        -1.430989         0.814613         1.745700
 C        -2.801625         1.009035         1.184650
 C        -2.096438         1.576147        -0.174504
 C        -0.973209         0.541183         0.302551
 O         0.400666         0.509824         0.293781
 C        -1.810981        -0.806139        -0.086914
 H        -4.469196        -1.373302         0.611713
 H        -2.205734        -0.632425         3.084850
 H        -0.689067        -1.214056         1.979798
 H        -0.852903         1.456902         2.252634
 H        -3.738762         1.374774         1.634500
 H        -2.674240         1.115814        -0.897531
 H        -1.770824         2.632162        -0.315935
 H         0.704042         1.410029         0.473129
 H        -2.417868        -0.713138        -1.042036
 H        -1.050354        -1.597756        -0.020626
