19
Iteration:   210charge 0 multiplicity 1
 O        -3.648748        -1.738207         1.349413
 C        -2.722291        -0.675143         1.115141
 C        -1.852814        -0.506482         2.340844
 C        -1.448001         0.828679         1.765971
 C        -2.861849         1.138695         1.036285
 C        -1.998730         1.591787        -0.144269
 C        -1.009008         0.567333         0.293526
 O         0.398545         0.396308         0.123979
 C        -1.752859        -0.716518        -0.082199
 H        -4.227277        -1.757070         0.497046
 H        -2.346443        -0.607616         3.293364
 H        -1.086797        -1.254991         2.379562
 H        -1.064667         1.792218         2.141881
 H        -3.783467         1.705795         1.519079
 H        -2.378930         1.733563        -1.085596
 H        -1.554925         2.620201         0.111302
 H         0.840862         1.168684         0.572599
 H        -2.199242        -0.540599        -1.043995
 H        -1.196491        -1.632395        -0.178211
