19
Iteration:  4635charge 0 multiplicity 1
 O        -3.758986        -1.376531         1.170699
 C        -2.674640        -0.627971         1.134505
 C        -1.878872        -0.552807         2.349760
 C        -1.477338         0.812448         1.812887
 C        -2.854612         0.987498         1.001213
 C        -2.030333         1.473444        -0.156434
 C        -0.939926         0.458276         0.385256
 O         0.441884         0.590059         0.198011
 C        -1.686629        -0.903847         0.042333
 H        -4.190926        -1.348324         0.298280
 H        -2.438105        -0.382895         3.265626
 H        -1.178317        -1.433631         2.559931
 H        -0.971937         1.656317         2.362012
 H        -3.745297         1.472431         1.280347
 H        -2.329467         1.383538        -1.209505
 H        -1.602048         2.427485        -0.082229
 H         0.483079         0.209437        -0.699431
 H        -2.142516        -0.869666        -0.921074
 H        -1.049701        -1.776448         0.104563
