19
Iteration:   786
 O        -3.976325        -1.221181         0.993871
 C        -2.720250        -0.691204         1.093308
 C        -1.900692        -0.562678         2.496409
 C        -1.413686         0.723286         1.894967
 C        -2.752741         0.897462         1.137092
 C        -2.052831         1.275032        -0.129391
 C        -0.878190         0.433250         0.407440
 O         0.370936         0.995163        -0.195224
 C        -1.529956        -1.077243         0.148473
 H        -4.117190        -1.692518         1.860401
 H        -2.579195        -0.353775         3.397772
 H        -1.159744        -1.400934         2.557821
 H        -0.854704         1.594129         2.323108
 H        -3.650086         1.308691         1.606441
 H        -2.410133         0.900290        -1.126709
 H        -1.657145         2.283598        -0.193315
 H         1.125443         0.613015         0.269336
 H        -1.795021        -1.126135        -0.960746
 H        -0.994767        -1.949248         0.568066
