19
Iteration:  2749charge 0 multiplicity 1
 O        -3.914992        -1.416103         1.169725
 C        -2.719669        -0.658672         1.051994
 C        -1.795221        -0.552745         2.368184
 C        -1.477281         0.795469         1.777369
 C        -2.832521         0.851992         1.013392
 C        -2.031831         1.523098        -0.050132
 C        -0.910308         0.547220         0.397899
 O         0.427810         0.613550         0.019466
 C        -1.641357        -0.855195        -0.002994
 H        -3.720185        -2.240503         1.732040
 H        -2.531898        -0.554213         3.199879
 H        -0.918091        -1.231804         2.485581
 H        -0.983896         1.599272         2.354316
 H        -3.688536         1.317261         1.557712
 H        -2.411751         1.537713        -1.098519
 H        -1.762938         2.593613         0.121685
 H         1.018197         0.933027         0.747480
 H        -2.012593        -0.619886        -1.015941
 H        -1.052503        -1.790142        -0.111606
