19
Iteration:  1474charge 0 multiplicity 1
 O        -3.939168        -1.234233         0.895256
 C        -2.671548        -0.673238         1.172315
 C        -1.850432        -0.505921         2.656543
 C        -1.385089         0.758071         1.820181
 C        -2.692610         0.816174         1.111226
 C        -2.174643         1.224156        -0.269851
 C        -0.882844         0.416312         0.376066
 O         0.295965         0.973148        -0.183268
 C        -1.474484        -1.098723         0.289703
 H        -4.608502        -0.535189         1.214110
 H        -2.550151        -0.109791         3.400260
 H        -1.110765        -1.171343         3.186239
 H        -0.938368         1.642077         2.211888
 H        -3.613316         1.182896         1.595085
 H        -2.622130         0.883156        -1.180883
 H        -1.884114         2.251673        -0.381422
 H         0.979844         0.575581         0.359964
 H        -1.661515        -1.378249        -0.738658
 H        -0.873839        -1.879302         0.725598
