19
Iteration:  3023charge 0 multiplicity 1
 O        -3.871871        -1.485463         1.014924
 C        -2.690256        -0.720222         1.194175
 C        -2.026643        -0.507634         2.588225
 C        -1.513236         0.864246         2.017552
 C        -2.787376         0.938146         1.082508
 C        -1.950234         1.468295        -0.062870
 C        -0.875988         0.501218         0.380393
 O         0.407595         0.557525        -0.281315
 C        -1.551473        -0.830123         0.093617
 H        -3.641809        -2.049451         0.207120
 H        -2.803594        -0.488419         3.367162
 H        -1.192841        -1.225364         2.811260
 H        -1.091795         1.732986         2.596392
 H        -3.549571         1.660870         1.529702
 H        -2.337052         1.508094        -1.139049
 H        -1.781186         2.601600         0.191391
 H         0.573438         1.533518        -0.393430
 H        -1.921301        -0.848745        -0.991644
 H        -0.836750        -1.638310         0.232584
