19
Iteration:  4210charge 0 multiplicity 1
 O        -3.934471        -1.466429         0.879011
 C        -2.776310        -0.620112         1.196365
 C        -1.857127        -0.614576         2.443885
 C        -1.369498         0.760559         1.823469
 C        -2.758579         1.000835         1.193219
 C        -2.048815         1.461948        -0.173822
 C        -0.960584         0.537107         0.283262
 O         0.542096         0.686711         0.155209
 C        -1.662595        -0.871284         0.074588
 H        -4.454805        -1.508536         1.671710
 H        -2.409288        -0.294293         3.320027
 H        -1.221518        -1.536284         2.551790
 H        -0.775562         1.480835         2.381749
 H        -3.644823         1.362435         1.705503
 H        -2.486127         1.418832        -1.227720
 H        -1.847321         2.521766        -0.125676
 H         0.744960         0.107325        -0.577811
 H        -2.210662        -0.711198        -0.928700
 H        -0.962238        -1.698471         0.262558
