19
Iteration:  4854
 O        -3.919744        -1.480781         1.086107
 C        -2.763038        -0.653561         1.181169
 C        -2.027049        -0.516305         2.510730
 C        -1.405248         0.826208         1.808967
 C        -2.715013         0.972120         1.046532
 C        -2.022263         1.434237        -0.127907
 C        -0.876067         0.500294         0.417435
 O         0.558121         0.700475        -0.033852
 C        -1.655470        -0.901458         0.093282
 H        -3.991838        -1.516405         0.138182
 H        -2.752203        -0.299141         3.263239
 H        -1.447730        -1.439255         2.686486
 H        -0.951587         1.682681         2.400882
 H        -3.523413         1.386934         1.642665
 H        -2.529444         1.208353        -1.102023
 H        -1.981037         2.502865         0.023850
 H         0.819725         0.221984        -0.796354
 H        -2.056418        -0.954463        -0.980132
 H        -0.976473        -1.725875         0.406934
