19
Iteration:  3319
 O        -3.866715        -1.558113         0.915333
 C        -2.780262        -0.656186         1.144267
 C        -1.940494        -0.495404         2.671530
 C        -1.406778         0.743595         1.897894
 C        -2.733323         1.064647         1.146776
 C        -1.985882         1.454602        -0.143075
 C        -0.889928         0.453913         0.327668
 O         0.361379         0.720399        -0.149246
 C        -1.564734        -0.837280         0.189731
 H        -4.415632        -1.258252         0.208816
 H        -2.661153        -0.177051         3.444382
 H        -1.214825        -1.331338         2.917760
 H        -0.920499         1.533003         2.468797
 H        -3.575750         1.534004         1.526608
 H        -2.411291         1.063544        -1.031627
 H        -1.776625         2.502532        -0.360614
 H         1.009736         0.015741        -0.022535
 H        -1.987462        -0.842330        -0.892706
 H        -1.095007        -1.851593         0.337852
