19
Iteration:  2641charge 0 multiplicity 1
 O        -3.935431        -1.375393         0.986642
 C        -2.712638        -0.669795         1.118287
 C        -1.974982        -0.547213         2.486513
 C        -1.452379         0.739999         1.991003
 C        -2.757698         0.942201         1.152369
 C        -2.012405         1.452474         0.019620
 C        -0.843010         0.529747         0.338213
 O         0.343130         0.597387        -0.342399
 C        -1.439519        -0.844876         0.250707
 H        -4.168051        -1.786147         0.128041
 H        -2.637354        -0.441786         3.349326
 H        -1.252297        -1.314708         2.769082
 H        -0.977532         1.461724         2.714859
 H        -3.884213         1.242081         1.287132
 H        -2.444258         1.227454        -0.928663
 H        -1.690978         2.448157         0.251687
 H         0.405715         1.540678        -0.474515
 H        -1.666253        -1.199771        -0.750449
 H        -0.648995        -1.443510         0.731492
