19
Iteration:  1193charge 0 multiplicity 1
 O        -3.940511        -1.274518         1.109963
 C        -2.663584        -0.721158         1.146949
 C        -1.769590        -0.688961         2.399693
 C        -1.411224         0.715273         1.817832
 C        -2.803014         0.867687         1.147259
 C        -2.126016         1.482490        -0.078372
 C        -0.923211         0.510883         0.302659
 O         0.448973         0.682501        -0.021753
 C        -1.641945        -0.818267         0.003572
 H        -3.982977        -2.266529         1.198109
 H        -2.391124        -0.542442         3.313554
 H        -0.987132        -1.483145         2.551082
 H        -0.988907         1.559099         2.232504
 H        -3.626004         1.290633         1.699095
 H        -2.519410         1.503392        -1.131508
 H        -1.853502         2.554377         0.227204
 H         0.651254         1.590812         0.228931
 H        -2.098834        -0.642668        -0.994996
 H        -1.027822        -1.747892         0.060413
