19
Iteration:   314
 O        -3.778852        -1.462860         0.773689
 C        -2.661191        -0.614925         1.176937
 C        -1.989903        -0.540599         2.672771
 C        -1.345018         0.744567         2.020230
 C        -2.732131         0.973870         1.290047
 C        -2.096995         1.536108         0.022745
 C        -0.910460         0.483543         0.334893
 O         0.243294         0.625563        -0.473397
 C        -1.507122        -0.958572         0.230680
 H        -4.123778        -1.290029        -0.108451
 H        -2.704393        -0.088322         3.367477
 H        -1.448146        -1.437695         3.107750
 H        -0.775676         1.383977         2.650200
 H        -3.510039         1.366103         1.792466
 H        -2.768543         1.364483        -0.843733
 H        -1.946761         2.543415         0.214658
 H         0.643310         1.519283        -0.288107
 H        -1.800337        -1.305435        -0.824431
 H        -0.832458        -1.636146         0.803582
