19
Iteration:  2847
 O        -3.961171        -1.365839         1.158109
 C        -2.700432        -0.632523         1.079692
 C        -1.958963        -0.615502         2.397648
 C        -1.445938         0.733777         1.848555
 C        -2.808512         0.938729         1.101826
 C        -1.988069         1.486103        -0.042853
 C        -0.882831         0.536552         0.371340
 O         0.394800         0.689721        -0.161314
 C        -1.458846        -0.958405         0.156615
 H        -3.990143        -1.967365         0.347723
 H        -2.758816        -0.442440         3.147856
 H        -1.270172        -1.383973         2.797609
 H        -0.985376         1.563289         2.397869
 H        -3.765961         1.332391         1.511321
 H        -2.327903         1.309288        -1.104856
 H        -1.626745         2.523281         0.217582
 H         0.564962         1.597073        -0.527592
 H        -1.612166        -1.380041        -0.839714
 H        -0.996227        -1.678518         0.823436
