19
Iteration:   900
 O        -3.769063        -1.757264         1.413192
 C        -2.756303        -0.638427         1.049910
 C        -1.949419        -0.458360         2.360285
 C        -1.443743         0.765133         1.753506
 C        -2.810090         1.074269         1.126339
 C        -1.993285         1.674072        -0.113835
 C        -0.912329         0.522548         0.317355
 O         0.478797         0.612548         0.084109
 C        -1.693754        -0.809103        -0.166005
 H        -4.385003        -1.984545         0.621850
 H        -2.721554        -0.192418         3.084297
 H        -1.270637        -1.264115         2.662715
 H        -0.988764         1.585669         2.321806
 H        -3.638616         1.618573         1.578434
 H        -2.319962         1.529503        -1.169839
 H        -1.530273         2.714642         0.092938
 H         0.802530        -0.205241        -0.323616
 H        -2.163172        -0.774873        -1.163635
 H        -1.178293        -1.758949         0.095662
