19
Iteration:  4766
 O        -3.930175        -1.409996         1.151124
 C        -2.675559        -0.622731         1.068878
 C        -1.946546        -0.534544         2.465960
 C        -1.404651         0.732793         1.910435
 C        -2.715780         1.012130         1.044227
 C        -1.951637         1.444582        -0.219583
 C        -0.932613         0.435109         0.344153
 O         0.356300         0.754329         0.090225
 C        -1.609256        -0.955271         0.069798
 H        -4.319912        -1.579657         0.289540
 H        -2.593103        -0.315086         3.288534
 H        -1.293413        -1.366786         2.806706
 H        -0.829958         1.490055         2.545337
 H        -3.596360         1.345958         1.546783
 H        -2.388524         1.242684        -1.219141
 H        -1.576769         2.434775        -0.128857
 H         0.610154         0.466500        -0.773743
 H        -1.849544        -1.042548        -1.049961
 H        -0.901945        -1.805629         0.312381
