19
Iteration:  4915
 O        -3.956186        -1.353461         0.846293
 C        -2.773515        -0.609283         1.186126
 C        -1.835822        -0.503658         2.573866
 C        -1.395635         0.772644         1.893479
 C        -2.786262         0.934415         1.125880
 C        -2.073939         1.372582        -0.124100
 C        -0.856349         0.462481         0.374182
 O         0.443968         0.722397        -0.088143
 C        -1.659870        -0.894143         0.063057
 H        -3.926097        -2.190302         1.295743
 H        -2.504860        -0.215576         3.443315
 H        -1.128443        -1.308424         2.919499
 H        -0.787161         1.465922         2.520243
 H        -3.620256         1.432570         1.544888
 H        -2.359616         1.054081        -1.141821
 H        -1.874833         2.475714        -0.049325
 H         1.016559         0.233478         0.516562
 H        -1.847671        -1.059221        -0.983078
 H        -0.953707        -1.682213         0.352357
