19
Iteration:  4099charge 0 multiplicity 1
 O        -3.966106        -1.282942         0.787714
 C        -2.655006        -0.627627         1.194668
 C        -1.977715        -0.608212         2.603906
 C        -1.337142         0.750718         2.006519
 C        -2.720798         0.917211         1.180981
 C        -2.039917         1.432395        -0.070666
 C        -0.924219         0.479359         0.381484
 O         0.319000         0.702940        -0.210883
 C        -1.556028        -0.855755         0.159554
 H        -3.790002        -2.032331         0.136652
 H        -2.704307        -0.396765         3.397444
 H        -1.295623        -1.455072         2.642861
 H        -0.772551         1.458589         2.547533
 H        -3.525407         1.263558         1.829012
 H        -2.476269         1.286767        -1.110520
 H        -1.810366         2.484112        -0.054869
 H         0.955738        -0.065809        -0.042081
 H        -1.645115        -1.029932        -0.978477
 H        -0.813549        -1.558168         0.592049
