19
Iteration:  1501charge 0 multiplicity 1
 O        -3.972429        -1.194485         0.923704
 C        -2.655814        -0.655177         1.254486
 C        -1.882624        -0.491649         2.549283
 C        -1.352900         0.774852         1.816817
 C        -2.711200         0.839847         1.154073
 C        -2.206826         1.074948        -0.290353
 C        -0.920732         0.444076         0.363562
 O         0.296190         0.966293        -0.087992
 C        -1.372407        -1.064415         0.201218
 H        -4.566277        -0.357440         0.987337
 H        -2.434065        -0.341138         3.491837
 H        -1.060931        -1.108633         2.887502
 H        -0.718891         1.601592         2.307246
 H        -3.598224         1.444337         1.566917
 H        -2.668497         0.599928        -1.207110
 H        -2.088536         2.178100        -0.474434
 H         0.780231         0.406266         0.514851
 H        -1.785924        -1.470355        -0.773982
 H        -0.564669        -1.842279         0.404286
