19
Iteration:  1659
 O        -4.100417        -1.224343         1.040769
 C        -2.698219        -0.653674         1.207765
 C        -1.985957        -0.567915         2.550263
 C        -1.417324         0.720694         1.923402
 C        -2.661905         0.931150         1.108747
 C        -2.054894         1.224325        -0.219977
 C        -0.818768         0.365444         0.369863
 O         0.370604         0.939766        -0.235932
 C        -1.382027        -0.981623         0.258748
 H        -3.881772        -2.202635         0.874379
 H        -2.712706        -0.382807         3.334824
 H        -1.487519        -1.506324         2.789074
 H        -0.880505         1.535624         2.444277
 H        -3.623925         1.390044         1.447247
 H        -2.582326         0.857248        -1.113854
 H        -1.725534         2.249899        -0.483848
 H         0.304744         1.720993        -0.783556
 H        -1.539133        -1.301936        -0.755317
 H        -0.720618        -1.736013         0.657146
