19
Iteration:  2319charge 0 multiplicity 1
 O        -3.921323        -1.388844         1.013700
 C        -2.705714        -0.636154         1.211987
 C        -2.071769        -0.454712         2.581074
 C        -1.278595         0.663983         1.838531
 C        -2.682466         0.879661         1.077767
 C        -2.026940         1.247120        -0.214917
 C        -0.931138         0.443520         0.270121
 O         0.422707         0.971191        -0.069222
 C        -1.588906        -0.982293         0.260539
 H        -4.397685        -1.218966         0.207019
 H        -2.734727        -0.042179         3.353007
 H        -1.466585        -1.337441         2.894200
 H        -0.773481         1.509167         2.492794
 H        -3.548954         1.353104         1.715896
 H        -2.444994         1.014077        -1.191562
 H        -1.677342         2.263395        -0.042716
 H         0.641142         0.836550        -1.041087
 H        -1.908908        -1.247863        -0.782160
 H        -1.032786        -1.855789         0.658358
