19
Iteration:  1942
 O        -3.723150        -1.569967         1.057468
 C        -2.725821        -0.624142         1.182683
 C        -1.893808        -0.453753         2.476257
 C        -1.444122         0.803475         1.776986
 C        -2.815375         0.984307         1.084753
 C        -2.063672         1.542817        -0.225369
 C        -0.966515         0.499345         0.329853
 O         0.421947         0.571539        -0.008391
 C        -1.622977        -0.837665         0.107898
 H        -4.500970        -1.274894         1.605503
 H        -2.656135        -0.150450         3.215959
 H        -1.201697        -1.305682         2.702373
 H        -0.889258         1.673011         2.191277
 H        -3.737575         1.372422         1.623631
 H        -2.471041         1.302342        -1.234451
 H        -1.868804         2.623090        -0.126968
 H         0.860275         0.042853         0.680047
 H        -2.071056        -0.993675        -0.944649
 H        -1.001232        -1.772000         0.370652
