19
Iteration:   377charge 0 multiplicity 1
 O        -3.862257        -1.490045         1.391797
 C        -2.742532        -0.752599         1.098810
 C        -1.765204        -0.664529         2.270365
 C        -1.421863         0.711567         1.704333
 C        -2.747870         1.030499         1.150740
 C        -2.043873         1.552262        -0.190445
 C        -0.938837         0.530571         0.260558
 O         0.429301         0.674550         0.243234
 C        -1.742230        -0.841719        -0.185666
 H        -4.191874        -1.786016         0.487101
 H        -2.293490        -0.478449         3.197541
 H        -1.053713        -1.471717         2.477481
 H        -0.788484         1.447711         2.241885
 H        -3.465994         1.616194         1.797604
 H        -2.427806         1.480648        -1.202058
 H        -1.809239         2.674483         0.072321
 H         0.469476         1.673684         0.276630
 H        -2.394745        -0.705005        -1.023291
 H        -1.037941        -1.687518        -0.102878
