19
Iteration:  2229charge 0 multiplicity 1
 O        -3.747661        -1.686244         1.231483
 C        -2.720797        -0.645714         1.124708
 C        -1.928738        -0.338553         2.507789
 C        -1.380549         0.786775         1.728533
 C        -2.787658         1.095974         1.081667
 C        -2.003351         1.545400        -0.252764
 C        -0.991378         0.539737         0.303114
 O         0.347746         0.567500         0.107929
 C        -1.670025        -0.842194        -0.012749
 H        -3.546878        -2.087618         0.344508
 H        -2.660562         0.006220         3.257707
 H        -1.505902        -1.276113         2.934788
 H        -0.687440         1.524862         2.127783
 H        -3.685866         1.542550         1.464439
 H        -2.259029         1.157826        -1.220602
 H        -1.771214         2.616640        -0.146958
 H         0.817514        -0.075502         0.701202
 H        -2.138015        -0.872134        -1.048904
 H        -1.126563        -1.815330         0.072775
