19
Iteration:  2445
 O        -3.900091        -1.422392         1.128089
 C        -2.729007        -0.663909         1.140847
 C        -1.837491        -0.578467         2.406281
 C        -1.405395         0.840010         1.826875
 C        -2.819366         0.913708         1.109981
 C        -2.048268         1.399427        -0.161312
 C        -0.945677         0.564897         0.364590
 O         0.423013         0.544623         0.008753
 C        -1.571537        -0.814158         0.111545
 H        -4.334441        -1.386656         0.294784
 H        -2.568933        -0.489428         3.211561
 H        -1.137284        -1.367630         2.651514
 H        -1.111497         1.750847         2.322013
 H        -3.711924         1.412622         1.535135
 H        -2.472077         1.264522        -1.170996
 H        -1.706794         2.466412        -0.210923
 H         0.873495         1.394174        -0.082657
 H        -1.860442        -0.851760        -0.930826
 H        -0.807716        -1.578069         0.287218
