19
Iteration:  4361
 O        -3.868648        -1.458830         1.210696
 C        -2.653536        -0.679819         1.143772
 C        -1.917468        -0.589637         2.452150
 C        -1.544972         0.735869         1.833370
 C        -2.807990         1.032332         0.916154
 C        -1.865192         1.541196        -0.184221
 C        -0.927376         0.536500         0.423516
 O         0.385805         0.613812         0.005377
 C        -1.617718        -0.890762         0.053011
 H        -4.369360        -1.369796         0.402967
 H        -2.626185        -0.512982         3.266810
 H        -1.241855        -1.383577         2.827559
 H        -1.010582         1.519925         2.334724
 H        -3.728200         1.588820         1.148838
 H        -2.189838         1.403179        -1.271829
 H        -1.632662         2.547323         0.172209
 H         0.996500         0.586171         0.774307
 H        -2.252900        -0.812609        -0.890488
 H        -0.958993        -1.759303        -0.196788
