19
Iteration:  1602charge 0 multiplicity 1
 O        -3.814173        -1.594920         1.128196
 C        -2.766043        -0.662671         1.159726
 C        -1.780217        -0.412262         2.408303
 C        -1.467393         0.888879         1.766381
 C        -2.808710         1.070720         1.062395
 C        -2.085927         1.508397        -0.270560
 C        -0.948559         0.535983         0.316718
 O         0.438616         0.566843         0.186547
 C        -1.700607        -0.867626         0.058848
 H        -3.456228        -2.352238         1.549943
 H        -2.369497        -0.211121         3.318026
 H        -0.996194        -1.164743         2.471275
 H        -0.894234         1.594744         2.244291
 H        -3.621052         1.566980         1.469398
 H        -2.410203         1.023659        -1.235498
 H        -1.964468         2.582344        -0.153622
 H         0.634285        -0.144530        -0.493316
 H        -1.958645        -0.971928        -1.002604
 H        -1.021126        -1.687615         0.454083
