19
Iteration:  1952charge 0 multiplicity 1
 O        -3.742267        -1.581256         0.986311
 C        -2.687973        -0.651015         1.174309
 C        -2.017857        -0.446240         2.515845
 C        -1.385780         0.805375         1.823385
 C        -2.790858         1.009901         1.048719
 C        -2.007199         1.507283        -0.197239
 C        -0.947399         0.549176         0.349678
 O         0.349527         0.610689        -0.120600
 C        -1.630588        -0.884149         0.212339
 H        -4.290093        -1.571397         1.853137
 H        -2.560801        -0.169763         3.455529
 H        -1.352491        -1.254292         2.968993
 H        -0.915667         1.567174         2.481000
 H        -3.697947         1.583105         1.453315
 H        -2.340744         1.269654        -1.246697
 H        -1.771817         2.571687        -0.077431
 H         0.913494        -0.034934         0.305787
 H        -1.961872        -0.837484        -0.884464
 H        -0.876776        -1.762364         0.373440
