19
Iteration:  3882charge 0 multiplicity 1
 O        -3.844885        -1.549756         1.024962
 C        -2.670339        -0.687517         1.186730
 C        -1.975619        -0.490041         2.457169
 C        -1.318465         0.713806         1.859156
 C        -2.814757         0.992578         1.031344
 C        -2.021279         1.581736        -0.187718
 C        -0.915748         0.512320         0.340762
 O         0.483494         0.616011         0.079446
 C        -1.734731        -0.807820        -0.028664
 H        -4.449262        -1.315945         1.720377
 H        -2.621130        -0.272079         3.303032
 H        -1.306305        -1.307372         2.896808
 H        -0.745593         1.559841         2.247850
 H        -3.729525         1.442841         1.455643
 H        -2.525211         1.278656        -1.154669
 H        -1.695706         2.593009        -0.026571
 H         1.015923         0.086915         0.653766
 H        -2.412384        -0.723958        -0.927015
 H        -1.082330        -1.668088        -0.078978
