19
Iteration:  3674
 O        -3.878203        -1.415156         1.001188
 C        -2.735374        -0.602984         1.139095
 C        -1.943734        -0.591464         2.519559
 C        -1.454739         0.760373         1.871957
 C        -2.751396         1.047350         1.070422
 C        -2.051522         1.482414        -0.203457
 C        -0.905847         0.491029         0.308035
 O         0.416830         0.670641         0.051410
 C        -1.612040        -0.883564         0.095455
 H        -4.016686        -2.012728         1.775611
 H        -2.552065        -0.494017         3.421187
 H        -1.061667        -1.209548         2.768498
 H        -0.727806         1.370610         2.341238
 H        -3.716305         1.410455         1.415665
 H        -2.441988         1.115534        -1.163750
 H        -1.647675         2.469976        -0.153160
 H         0.993254        -0.013123        -0.418571
 H        -1.820191        -0.862096        -1.023531
 H        -0.929058        -1.771472         0.253980
