19
Iteration:   450
 O        -3.804489        -1.439346         0.907321
 C        -2.697755        -0.621350         1.266786
 C        -1.993894        -0.593509         2.573256
 C        -1.363074         0.728317         1.900344
 C        -2.743694         0.919380         1.252038
 C        -2.084051         1.465547        -0.017553
 C        -0.957186         0.528350         0.242083
 O         0.319733         0.655396        -0.377658
 C        -1.508872        -0.896758         0.240450
 H        -3.763255        -1.266100        -0.096223
 H        -2.746808        -0.304648         3.347819
 H        -1.443510        -1.475142         2.908878
 H        -0.943664         1.476659         2.644162
 H        -3.554396         1.603239         1.771182
 H        -2.568457         1.312721        -0.988204
 H        -1.778948         2.514847         0.154338
 H         0.669050         1.462647         0.023867
 H        -1.904169        -1.054607        -0.750687
 H        -0.779477        -1.576479         0.681785
