19
Iteration:  4436
 O        -3.834357        -1.275167         0.952000
 C        -2.648722        -0.667228         1.136966
 C        -2.006304        -0.493176         2.507800
 C        -1.477875         0.825041         1.885257
 C        -2.789760         0.984185         1.101783
 C        -2.079367         1.401668        -0.047201
 C        -0.866917         0.374206         0.462021
 O         0.372668         0.668007        -0.117529
 C        -1.510033        -0.966752         0.162735
 H        -3.925149        -1.665932         0.046401
 H        -2.754834        -0.225916         3.342671
 H        -1.169864        -1.233209         2.645941
 H        -1.023007         1.610375         2.439433
 H        -3.777273         1.473525         1.430939
 H        -2.571025         1.182370        -1.051553
 H        -1.675119         2.422072         0.057368
 H         0.676694        -0.003176        -0.741933
 H        -1.585224        -0.927405        -0.875553
 H        -1.012115        -1.887467         0.520551
