19
Iteration:   205
 O        -3.637652        -1.758860         1.308130
 C        -2.730344        -0.621358         1.115332
 C        -1.860412        -0.480496         2.372809
 C        -1.453123         0.832235         1.762357
 C        -2.882357         1.141307         1.047933
 C        -1.983793         1.607905        -0.119763
 C        -1.003677         0.524955         0.315844
 O         0.391316         0.388305         0.073133
 C        -1.755848        -0.719957        -0.070711
 H        -4.232194        -1.794830         0.580204
 H        -2.436151        -0.486233         3.330084
 H        -0.937700        -1.145054         2.444496
 H        -1.017240         1.629414         2.394006
 H        -3.657836         1.697815         1.414558
 H        -2.477258         1.701212        -1.204407
 H        -1.788539         2.622760         0.176235
 H         0.902088         0.994735         0.606647
 H        -2.109034        -0.637591        -1.141462
 H        -1.018897        -1.569713        -0.104699
