19
Iteration:  2503
 O        -3.804396        -1.494833         0.960253
 C        -2.797741        -0.564892         1.183719
 C        -2.118635        -0.485902         2.541399
 C        -1.237879         0.643362         1.914120
 C        -2.713320         0.981530         1.151419
 C        -2.069534         1.482603        -0.157906
 C        -0.902656         0.444734         0.466098
 O         0.353873         0.690790        -0.300894
 C        -1.516696        -0.903018         0.270495
 H        -4.099464        -1.418192        -0.000120
 H        -2.748972        -0.104614         3.367663
 H        -1.641638        -1.501425         2.806557
 H        -0.668607         1.405706         2.570611
 H        -3.646717         1.484186         1.619798
 H        -2.642642         0.931803        -0.958078
 H        -1.724127         2.581853        -0.239447
 H         0.563993         1.665539        -0.359011
 H        -1.736634        -1.112471        -0.831767
 H        -0.917653        -1.735845         0.711318
