19
Iteration:  4548charge 0 multiplicity 1
 O        -3.954930        -1.446845         1.068214
 C        -2.780943        -0.659755         1.102065
 C        -1.950465        -0.500942         2.443285
 C        -1.410067         0.767959         1.824787
 C        -2.726782         1.033195         1.102001
 C        -2.073929         1.482225        -0.186995
 C        -0.897021         0.430129         0.419830
 O         0.502250         0.665473         0.037737
 C        -1.549486        -0.914162         0.161753
 H        -4.380637        -1.548606         0.175773
 H        -2.508199        -0.302722         3.379879
 H        -1.235323        -1.394761         2.697052
 H        -0.808023         1.539808         2.351973
 H        -3.499055         1.539116         1.601615
 H        -2.488334         1.168033        -1.208225
 H        -1.638705         2.459224        -0.090012
 H         0.600923         0.758707        -0.961178
 H        -1.938153        -1.098961        -0.826561
 H        -0.948681        -1.762563         0.467529
