19
Iteration:  2011
 O        -3.941937        -1.212008         0.927877
 C        -2.633085        -0.719085         1.168005
 C        -2.016578        -0.504708         2.679825
 C        -1.454420         0.810831         1.887701
 C        -2.770700         0.843421         1.126526
 C        -2.058209         1.339222        -0.225304
 C        -0.919299         0.503477         0.300002
 O         0.286358         0.723587        -0.254266
 C        -1.365403        -0.916991         0.353036
 H        -3.754591        -2.013075         0.469440
 H        -2.782142        -0.146477         3.352004
 H        -1.307375        -1.187553         3.101469
 H        -0.974650         1.640892         2.396178
 H        -3.630583         1.169991         1.631599
 H        -2.357398         0.960526        -1.196848
 H        -1.799236         2.422956        -0.296214
 H         0.966604         0.006231        -0.210091
 H        -1.420533        -1.291019        -0.690543
 H        -0.601222        -1.489228         0.852274
