19
Iteration:  1288charge 0 multiplicity 1
 O        -3.727844        -1.457005         0.766826
 C        -2.727198        -0.575154         1.200969
 C        -1.906753        -0.585629         2.639569
 C        -1.324939         0.731040         1.962739
 C        -2.753056         0.961104         1.293694
 C        -2.145074         1.518271        -0.094299
 C        -0.975527         0.542067         0.343862
 O         0.300135         0.625071        -0.296918
 C        -1.504035        -0.871086         0.220293
 H        -4.618433        -0.984685         0.695956
 H        -2.552871        -0.436869         3.457132
 H        -1.336272        -1.474843         2.803614
 H        -0.792773         1.392510         2.658178
 H        -3.638296         1.491231         1.683802
 H        -2.621068         1.347799        -1.035351
 H        -1.951442         2.556299         0.014513
 H         0.324933        -0.050708        -0.976469
 H        -1.812705        -1.183047        -0.743377
 H        -0.862552        -1.474502         0.783534
