19
Iteration:  3484charge 0 multiplicity 1
 O        -3.950410        -1.322282         1.043075
 C        -2.751418        -0.640738         1.141553
 C        -1.908998        -0.548409         2.479832
 C        -1.448804         0.823997         1.869244
 C        -2.762012         0.925939         1.063346
 C        -2.030444         1.390292        -0.169770
 C        -0.921609         0.463784         0.423920
 O         0.373830         0.771817        -0.109762
 C        -1.437396        -1.028052         0.204390
 H        -4.223982        -1.297845         0.112664
 H        -2.638604        -0.270690         3.280140
 H        -1.039993        -1.193958         2.718992
 H        -0.935335         1.596311         2.524724
 H        -3.712668         1.352290         1.452953
 H        -2.474306         1.131406        -1.120919
 H        -1.676271         2.457950        -0.176511
 H         0.805910        -0.052035         0.066811
 H        -1.717311        -1.181082        -0.853489
 H        -0.790310        -1.849439         0.585587
