19
Iteration:  3683charge 0 multiplicity 1
 O        -3.863405        -1.525486         0.974179
 C        -2.767640        -0.621814         1.148605
 C        -1.899775        -0.549670         2.480022
 C        -1.391901         0.801419         1.846926
 C        -2.757911         1.079747         1.095523
 C        -1.974489         1.465521        -0.251241
 C        -0.983127         0.475634         0.390101
 O         0.407530         0.666956         0.066750
 C        -1.643426        -0.814656         0.060236
 H        -3.964905        -1.990173         1.850027
 H        -2.356669        -0.299258         3.464477
 H        -1.187464        -1.434846         2.607108
 H        -0.814130         1.369801         2.482053
 H        -3.559704         1.706641         1.470711
 H        -2.507425         1.257804        -1.221648
 H        -1.654333         2.551018        -0.139728
 H         0.815518        -0.241457        -0.157233
 H        -2.004272        -0.902136        -0.965355
 H        -1.207644        -1.789156         0.380100
