19
Iteration:  3941charge 0 multiplicity 1
 O        -3.877173        -1.294310         0.835071
 C        -2.689573        -0.637566         1.162861
 C        -2.032946        -0.567122         2.573239
 C        -1.339465         0.681177         1.916910
 C        -2.695243         0.875034         1.150500
 C        -2.010584         1.352933        -0.117984
 C        -0.898865         0.446635         0.388400
 O         0.313424         0.826236        -0.148349
 C        -1.541832        -0.904741         0.127230
 H        -4.612718        -1.236130         1.503152
 H        -2.774056        -0.188948         3.359637
 H        -1.502693        -1.469959         2.884170
 H        -1.040303         1.693961         2.358874
 H        -3.480105         1.454313         1.645215
 H        -2.468650         1.065084        -1.030197
 H        -1.767784         2.438586        -0.174623
 H         1.086788         0.190141         0.017157
 H        -1.880112        -1.216511        -0.852149
 H        -0.788586        -1.671638         0.546091
