19
Iteration:  4423charge 0 multiplicity 1
 O        -3.855201        -1.292539         0.895080
 C        -2.713897        -0.533497         1.163102
 C        -1.941750        -0.575984         2.589446
 C        -1.455519         0.786673         1.962197
 C        -2.759573         0.931210         1.108703
 C        -2.018545         1.385952        -0.192408
 C        -0.916111         0.447670         0.359217
 O         0.357274         0.721344        -0.103980
 C        -1.522381        -0.977610         0.221485
 H        -3.755877        -1.604578        -0.006299
 H        -2.631839        -0.412840         3.519348
 H        -1.338465        -1.448655         2.889924
 H        -0.994418         1.659397         2.452297
 H        -3.655481         1.429771         1.658131
 H        -2.354552         1.163284        -1.181547
 H        -1.788802         2.483837        -0.192848
 H         0.669926        -0.094416        -0.570673
 H        -2.031276        -1.216498        -0.664221
 H        -0.971047        -1.862034         0.570241
