19
Iteration:  3479
 O        -3.962603        -1.329693         1.045128
 C        -2.714318        -0.641898         1.119487
 C        -1.904118        -0.558269         2.512217
 C        -1.476648         0.823457         1.951357
 C        -2.787180         0.942361         1.021640
 C        -2.013358         1.412357        -0.167640
 C        -0.923000         0.498607         0.394845
 O         0.368772         0.753178        -0.138342
 C        -1.435250        -1.035343         0.228370
 H        -4.200018        -1.372074         0.106228
 H        -2.610598        -0.390052         3.311835
 H        -1.111406        -1.249458         2.815280
 H        -0.957333         1.564154         2.513117
 H        -3.632203         1.410074         1.506496
 H        -2.354517         1.176839        -1.224629
 H        -1.743455         2.457005        -0.199759
 H         0.914852        -0.084441        -0.107564
 H        -1.701512        -1.182675        -0.821311
 H        -0.813982        -1.871904         0.543194
