19
Iteration:   230
 O        -3.778300        -1.555952         1.376842
 C        -2.681015        -0.681839         1.105450
 C        -1.750271        -0.594767         2.308106
 C        -1.447903         0.764319         1.758485
 C        -2.807905         0.981718         1.043552
 C        -1.992386         1.674205        -0.231500
 C        -1.002865         0.534606         0.306205
 O         0.421151         0.537883         0.224679
 C        -1.815468        -0.818827        -0.101011
 H        -4.150020        -1.968775         0.544190
 H        -2.323595        -0.581680         3.231789
 H        -0.872125        -1.204653         2.474977
 H        -0.957802         1.420403         2.434606
 H        -3.726517         1.430995         1.530136
 H        -2.418818         1.555673        -1.252636
 H        -1.955057         2.757270        -0.036272
 H         0.733219         1.438184         0.116651
 H        -2.279235        -0.748406        -1.069641
 H        -1.110330        -1.615212        -0.179890
