19
Iteration:  1404charge 0 multiplicity 1
 O        -3.618000        -1.714639         1.194396
 C        -2.660534        -0.662844         1.122635
 C        -1.873512        -0.377798         2.500396
 C        -1.515304         0.847093         1.786997
 C        -2.900763         0.987929         0.974465
 C        -1.983079         1.705612        -0.185067
 C        -0.977431         0.522480         0.297525
 O         0.422152         0.399890         0.141150
 C        -1.800330        -0.734371        -0.083509
 H        -3.492026        -1.920646         2.172562
 H        -2.719914        -0.305153         3.280025
 H        -1.046829        -1.074425         2.848346
 H        -1.113815         1.847236         2.168571
 H        -3.768089         1.554769         1.406436
 H        -2.331461         1.837433        -1.295815
 H        -1.647664         2.730663         0.175448
 H         0.473800        -0.450012        -0.292577
 H        -2.265735        -0.454782        -1.067816
 H        -1.169141        -1.680232        -0.050389
