19
Iteration:  2067charge 0 multiplicity 1
 O        -3.902337        -1.487182         1.326805
 C        -2.736645        -0.706964         1.121188
 C        -1.872936        -0.492829         2.406634
 C        -1.459719         0.833333         1.710014
 C        -2.813711         0.953001         0.938188
 C        -1.978381         1.526751        -0.272272
 C        -0.910865         0.482118         0.315503
 O         0.398788         0.645707         0.101140
 C        -1.616032        -0.855054         0.025494
 H        -3.526522        -2.412736         1.455704
 H        -2.534062        -0.270277         3.240233
 H        -1.188607        -1.241308         2.799614
 H        -0.955996         1.546998         2.387431
 H        -3.691099         1.493569         1.276011
 H        -2.300093         1.353677        -1.294620
 H        -1.762536         2.566753         0.008921
 H         0.849554         0.500046         0.925965
 H        -2.045137        -0.806956        -0.993910
 H        -0.887007        -1.630395         0.082899
