19
Iteration:  1706charge 0 multiplicity 1
 O        -3.783318        -1.423161         0.955333
 C        -2.675452        -0.714919         1.121622
 C        -1.847153        -0.419495         2.610399
 C        -1.479752         0.889890         1.826880
 C        -2.811018         0.935871         1.135725
 C        -2.134654         1.537766        -0.067371
 C        -0.988332         0.499762         0.299692
 O         0.343795         0.395300        -0.114371
 C        -1.549922        -0.836981         0.100046
 H        -3.541452        -2.366426         0.848431
 H        -2.538453        -0.211974         3.430799
 H        -0.957662        -0.899127         3.031752
 H        -1.089720         1.824040         2.365678
 H        -3.683513         1.459386         1.622502
 H        -2.470236         1.421568        -1.068759
 H        -1.851766         2.583875         0.076397
 H         0.968406         1.063667         0.151965
 H        -1.902061        -1.070562        -0.882996
 H        -0.823669        -1.552259         0.308599
