19
Iteration:  1326charge 0 multiplicity 1
 O        -3.946165        -1.319915         0.870026
 C        -2.678095        -0.659578         1.193438
 C        -1.950200        -0.568115         2.672330
 C        -1.331777         0.656065         1.982621
 C        -2.721637         0.864602         1.167527
 C        -2.072344         1.316843        -0.142209
 C        -0.897561         0.459036         0.329781
 O         0.317333         0.928417        -0.250506
 C        -1.434860        -0.996923         0.191483
 H        -4.659038        -0.647125         0.936832
 H        -2.708586        -0.081395         3.395699
 H        -1.306320        -1.318686         3.217027
 H        -0.720807         1.521344         2.380023
 H        -3.616081         1.308907         1.688545
 H        -2.519214         1.192756        -1.195103
 H        -1.808908         2.437681         0.013172
 H         0.131310         0.686294        -1.170671
 H        -1.654320        -1.341990        -0.878386
 H        -0.787322        -1.836049         0.627393
