19
Iteration:  3254charge 0 multiplicity 1
 O        -3.934429        -1.448522         1.128352
 C        -2.735288        -0.641387         1.195454
 C        -1.963768        -0.635584         2.466328
 C        -1.401003         0.748291         1.788743
 C        -2.777109         0.957434         1.079011
 C        -1.940086         1.481790        -0.210417
 C        -0.878269         0.484617         0.280345
 O         0.442156         0.810510         0.055019
 C        -1.671707        -0.879750         0.137041
 H        -3.937022        -2.150795         0.438080
 H        -2.566820        -0.315616         3.317985
 H        -1.114809        -1.289827         2.675247
 H        -0.917810         1.548025         2.330735
 H        -3.575940         1.442455         1.517875
 H        -2.367312         1.283413        -1.175418
 H        -1.585277         2.517935        -0.074879
 H         0.879937         0.209428        -0.563993
 H        -2.291401        -0.922941        -0.839164
 H        -0.994977        -1.771880         0.284199
