19
Iteration:   229
 O        -3.769155        -1.564422         1.379167
 C        -2.679721        -0.687457         1.106459
 C        -1.753567        -0.598498         2.303823
 C        -1.460015         0.782582         1.753266
 C        -2.803474         0.985882         1.047135
 C        -1.992957         1.686516        -0.230233
 C        -1.002116         0.527729         0.307779
 O         0.418995         0.531720         0.226313
 C        -1.818951        -0.811710        -0.096013
 H        -4.173485        -1.986724         0.535884
 H        -2.344054        -0.558979         3.223776
 H        -0.863360        -1.235627         2.462128
 H        -0.946439         1.406835         2.423137
 H        -3.674332         1.419284         1.514840
 H        -2.418184         1.538811        -1.296517
 H        -1.910176         2.754610        -0.038618
 H         0.748934         1.442300         0.137846
 H        -2.321421        -0.742962        -1.073870
 H        -1.113927        -1.626865        -0.192422
