19
Iteration:  2136
 O        -3.842615        -1.461818         0.801038
 C        -2.718706        -0.552962         1.271371
 C        -1.893242        -0.452837         2.549475
 C        -1.370345         0.759270         1.803370
 C        -2.711557         1.044415         1.135540
 C        -2.141941         1.276921        -0.224586
 C        -0.917722         0.408118         0.331006
 O         0.342609         0.790244        -0.103120
 C        -1.537954        -0.974667         0.256289
 H        -4.511028        -1.640984         1.482266
 H        -2.465775        -0.051998         3.417398
 H        -1.201037        -1.121786         3.064485
 H        -0.814749         1.682997         2.213369
 H        -3.528975         1.645531         1.685099
 H        -2.814300         0.822604        -1.011967
 H        -1.832188         2.319683        -0.381916
 H         1.011957         0.651488         0.567788
 H        -1.956294        -1.230472        -0.702058
 H        -1.139115        -1.908867         0.682843
