19
Iteration:   380
 O        -3.851707        -1.494326         1.401066
 C        -2.742762        -0.747301         1.102447
 C        -1.749409        -0.675755         2.261259
 C        -1.418995         0.678780         1.704261
 C        -2.741673         1.042751         1.145038
 C        -2.064891         1.620719        -0.197776
 C        -0.942513         0.525454         0.263747
 O         0.432521         0.675148         0.258417
 C        -1.748410        -0.864040        -0.181154
 H        -4.239953        -1.754357         0.497989
 H        -2.316600        -0.398330         3.168165
 H        -1.026587        -1.502594         2.522969
 H        -0.899404         1.496906         2.146434
 H        -3.399343         1.524543         1.697915
 H        -2.337264         1.411967        -1.248520
 H        -1.881791         2.625146        -0.010062
 H         0.467905         1.628693         0.339594
 H        -2.397226        -0.645547        -1.058541
 H        -1.107689        -1.737415        -0.092189
