19
Iteration:   842
 O        -3.912253        -1.460517         0.986932
 C        -2.676752        -0.646179         1.194116
 C        -1.859553        -0.493694         2.464470
 C        -1.390152         0.837903         1.877137
 C        -2.747951         0.982825         1.139514
 C        -2.147599         1.375859        -0.129634
 C        -0.893607         0.480305         0.361711
 O         0.358787         0.718357        -0.136856
 C        -1.566472        -0.893883         0.219354
 H        -3.776754        -1.672055         0.083121
 H        -2.546847        -0.407102         3.379400
 H        -1.059479        -1.260972         2.676107
 H        -0.892291         1.606202         2.401432
 H        -3.668956         1.565689         1.482300
 H        -2.596690         1.227970        -1.129141
 H        -1.784879         2.468707        -0.085652
 H         0.951237         0.023650         0.180479
 H        -2.103727        -0.999754        -0.796532
 H        -1.036294        -1.870940         0.360442
