19
Iteration:  4317
 O        -3.760606        -1.442521         1.111618
 C        -2.701902        -0.640561         1.125809
 C        -1.954573        -0.555693         2.415981
 C        -1.358059         0.752186         1.808496
 C        -2.831876         1.068828         1.059700
 C        -2.162132         1.606891        -0.224888
 C        -0.950202         0.439455         0.331503
 O         0.448652         0.513924         0.129001
 C        -1.600405        -0.875863         0.028952
 H        -4.403282        -1.187421         0.449377
 H        -2.463240        -0.386589         3.364638
 H        -1.319329        -1.453592         2.595353
 H        -0.929826         1.556287         2.345406
 H        -3.652419         1.538285         1.666230
 H        -2.521510         1.167910        -1.193511
 H        -1.646415         2.557554        -0.221000
 H         0.820150         0.813109         0.980389
 H        -1.812340        -0.944215        -1.094788
 H        -1.118572        -1.833069         0.385252
