19
Iteration:  1134charge 0 multiplicity 1
 O        -3.793709        -1.454967         0.841661
 C        -2.709314        -0.592492         1.209342
 C        -2.071357        -0.640601         2.619862
 C        -1.367693         0.611832         2.034176
 C        -2.683140         0.965711         1.235628
 C        -1.975144         1.532151         0.029811
 C        -0.908202         0.525850         0.264545
 O         0.224472         0.689994        -0.494229
 C        -1.527010        -0.863973         0.322160
 H        -3.695110        -1.584231        -0.079005
 H        -2.679847        -0.208554         3.413182
 H        -1.499418        -1.520883         2.882502
 H        -0.782478         1.441182         2.634663
 H        -3.593494         1.469892         1.716194
 H        -2.480159         1.340435        -0.979468
 H        -1.755882         2.577489         0.210613
 H         0.583222         1.605893        -0.347356
 H        -1.876895        -1.146339        -0.680018
 H        -0.963622        -1.684274         0.742419
