19
Iteration:  2714charge 0 multiplicity 1
 O        -3.955346        -1.338003         1.187489
 C        -2.668143        -0.695386         1.097631
 C        -1.869684        -0.659266         2.407592
 C        -1.522728         0.702419         1.919352
 C        -2.793908         0.947476         1.005478
 C        -2.039850         1.599927        -0.156924
 C        -0.941159         0.530874         0.260082
 O         0.462680         0.668304        -0.037410
 C        -1.529279        -0.898118         0.067717
 H        -3.777586        -2.277763         1.539262
 H        -2.587042        -0.787153         3.270371
 H        -1.064225        -1.405878         2.530944
 H        -0.877523         1.406713         2.400496
 H        -3.672305         1.308301         1.414423
 H        -2.627931         1.345935        -1.084926
 H        -1.786806         2.655735         0.113530
 H         0.763326         1.307743         0.659962
 H        -2.016451        -0.846914        -0.922457
 H        -0.848214        -1.802673         0.133065
