19
Iteration:  4820
 O        -3.800395        -1.522805         1.140830
 C        -2.671046        -0.671469         1.131900
 C        -1.893279        -0.499062         2.369236
 C        -1.452476         0.831287         1.742494
 C        -2.791212         1.079587         1.053861
 C        -1.993256         1.527519        -0.176927
 C        -0.989206         0.451257         0.359739
 O         0.370100         0.498920         0.236478
 C        -1.633162        -0.856840         0.043234
 H        -4.468696        -1.127775         0.573095
 H        -2.429928        -0.353721         3.268762
 H        -1.169890        -1.314707         2.457982
 H        -0.822426         1.720201         2.078568
 H        -3.575908         1.589221         1.538765
 H        -2.494193         1.421460        -1.179410
 H        -1.716685         2.558317        -0.024100
 H         0.521204         0.639959        -0.690524
 H        -1.806071        -1.045098        -1.045655
 H        -0.820512        -1.545856         0.392477
