19
Iteration:  4005charge 0 multiplicity 1
 O        -3.854922        -1.489940         1.033823
 C        -2.729430        -0.689898         1.122708
 C        -1.843309        -0.556794         2.405419
 C        -1.472479         0.782711         1.883957
 C        -2.834110         0.940656         1.021281
 C        -1.988353         1.569248        -0.085015
 C        -0.899059         0.566428         0.401254
 O         0.435817         0.556910         0.038747
 C        -1.651879        -0.756808        -0.015690
 H        -4.133984        -1.498114         1.951097
 H        -2.633741        -0.376769         3.117903
 H        -1.162514        -1.394995         2.568927
 H        -1.104091         1.563588         2.617069
 H        -3.761118         1.374231         1.399050
 H        -2.241236         1.637912        -1.137178
 H        -1.699842         2.603225         0.132453
 H         0.719191        -0.346048        -0.071144
 H        -2.045592        -0.797289        -1.029444
 H        -0.957588        -1.585686         0.151586
