19
Iteration:   456
 O        -3.784852        -1.402729         0.892482
 C        -2.720970        -0.630055         1.236801
 C        -2.028679        -0.593791         2.590859
 C        -1.365972         0.693100         1.870688
 C        -2.764661         0.957283         1.287891
 C        -2.073997         1.434696         0.006586
 C        -0.912900         0.490052         0.268149
 O         0.317800         0.689633        -0.390440
 C        -1.516641        -0.874176         0.265493
 H        -3.724940        -1.451031        -0.081031
 H        -2.709029        -0.220099         3.371854
 H        -1.478686        -1.486310         2.963605
 H        -0.962788         1.502391         2.431433
 H        -3.383786         1.445065         1.925860
 H        -2.723595         1.300694        -0.905173
 H        -1.675198         2.465071        -0.018413
 H         0.534436         1.651770        -0.190722
 H        -1.724598        -1.334017        -0.786020
 H        -0.825921        -1.675089         0.601002
