19
Iteration:  3288charge 0 multiplicity 1
 O        -3.762939        -1.416040         1.003002
 C        -2.668926        -0.625396         1.089251
 C        -2.013267        -0.518447         2.448931
 C        -1.487738         0.833164         1.840256
 C        -2.836854         0.927468         1.155238
 C        -2.093226         1.548522        -0.015948
 C        -0.846758         0.531859         0.371971
 O         0.355758         0.514455        -0.185442
 C        -1.474692        -0.854841         0.301074
 H        -4.031062        -1.513792         0.032925
 H        -2.787293        -0.387219         3.242148
 H        -1.351797        -1.297316         2.860643
 H        -1.095584         1.702072         2.421546
 H        -3.740800         1.230419         1.610727
 H        -2.455757         1.440734        -1.033753
 H        -1.796200         2.624566         0.099042
 H         0.654294        -0.301063        -0.647103
 H        -1.740928        -0.895508        -0.808906
 H        -0.830801        -1.764489         0.526945
