19
Iteration:  4949charge 0 multiplicity 1
 O        -3.822418        -1.402591         1.036683
 C        -2.753595        -0.607400         1.085490
 C        -1.956120        -0.594229         2.422449
 C        -1.416740         0.723835         1.820400
 C        -2.783189         0.983956         1.085903
 C        -2.050061         1.545700        -0.096844
 C        -0.966760         0.489178         0.344267
 O         0.446248         0.587979        -0.017193
 C        -1.611754        -0.904987         0.048902
 H        -3.972753        -1.826193         1.886001
 H        -2.688707        -0.294856         3.223047
 H        -1.238408        -1.426632         2.718280
 H        -0.802916         1.439886         2.490811
 H        -3.632624         1.471725         1.478155
 H        -2.316607         1.510538        -1.223695
 H        -1.677960         2.592763         0.031006
 H         0.867066         1.118841         0.702275
 H        -1.914798        -1.039230        -0.972697
 H        -0.899171        -1.630981         0.487892
