19
Iteration:  4706charge 0 multiplicity 1
 O        -3.848863        -1.337398         0.999502
 C        -2.639715        -0.663551         1.111321
 C        -1.941433        -0.517534         2.497035
 C        -1.506793         0.878983         1.929185
 C        -2.793904         0.997742         1.087204
 C        -2.006078         1.417415        -0.104595
 C        -0.902249         0.432311         0.418485
 O         0.393298         0.582493        -0.052173
 C        -1.535792        -0.961498         0.153501
 H        -3.934566        -1.437690         0.023205
 H        -2.633021        -0.369163         3.391358
 H        -1.277056        -1.367415         2.767558
 H        -1.118818         1.661456         2.526615
 H        -3.736926         1.399169         1.617480
 H        -2.361493         1.347259        -1.181219
 H        -1.862344         2.597543        -0.063674
 H         0.339345         0.566692        -1.032437
 H        -2.046433        -0.932019        -0.864931
 H        -0.914523        -1.875890         0.235761
