19
Iteration:   523charge 0 multiplicity 1
 O        -3.953729        -1.388594         1.183641
 C        -2.648108        -0.695735         1.102933
 C        -1.730348        -0.596247         2.292425
 C        -1.371962         0.793928         1.819867
 C        -2.806648         0.875599         1.112226
 C        -2.188770         1.537037        -0.107874
 C        -0.943366         0.529552         0.265481
 O         0.432308         0.689859         0.147373
 C        -1.626879        -0.831981        -0.028676
 H        -4.048238        -2.245632         1.642361
 H        -2.277249        -0.475137         3.272166
 H        -0.963750        -1.375587         2.467382
 H        -0.988729         1.621432         2.474128
 H        -3.646905         1.297029         1.548381
 H        -2.714529         1.455660        -1.133772
 H        -1.891562         2.544009         0.123451
 H         0.947815         0.175950        -0.467006
 H        -2.156314        -0.949585        -1.099081
 H        -0.878779        -1.686861         0.077045
