19
Iteration:  4064
 O        -3.984745        -1.242151         0.949579
 C        -2.699900        -0.649212         1.137850
 C        -1.936627        -0.659352         2.482797
 C        -1.428021         0.717253         1.913426
 C        -2.715161         0.939613         1.119707
 C        -2.034475         1.525269        -0.122354
 C        -0.917810         0.420336         0.363869
 O         0.382985         0.775178        -0.097273
 C        -1.555121        -0.962691         0.082950
 H        -3.924288        -2.205114         1.239654
 H        -2.598445        -0.732616         3.347775
 H        -1.296212        -1.502173         2.604972
 H        -0.865587         1.464654         2.485309
 H        -3.594303         1.317198         1.688862
 H        -2.399892         1.397656        -1.117295
 H        -1.536598         2.456981         0.077340
 H         1.119854         0.620519         0.570562
 H        -1.815314        -1.093210        -0.983363
 H        -0.777379        -1.693775         0.371362
