19
Iteration:   164charge 0 multiplicity 1
 O        -3.834258        -1.457439         1.043288
 C        -2.719436        -0.659848         1.218772
 C        -1.967156        -0.494134         2.582201
 C        -1.444556         0.782981         1.876701
 C        -2.768339         0.932158         1.116675
 C        -2.093922         1.423673        -0.110076
 C        -0.913720         0.508545         0.328735
 O         0.354881         0.622523        -0.271376
 C        -1.485883        -0.855390         0.170461
 H        -3.960454        -1.572834         0.077128
 H        -2.585708        -0.138536         3.394545
 H        -1.383390        -1.296154         3.015604
 H        -0.812793         1.484675         2.359696
 H        -3.562584         1.532810         1.528396
 H        -2.441050         1.290825        -1.146867
 H        -1.863080         2.475745        -0.029095
 H         0.880456         1.253617         0.276106
 H        -1.817924        -1.153830        -0.820311
 H        -0.822384        -1.661209         0.460633
