19
Iteration:   550charge 0 multiplicity 1
 O        -3.720941        -1.572488         1.250662
 C        -2.748231        -0.578395         1.060082
 C        -1.746810        -0.617841         2.344387
 C        -1.448870         0.734786         1.805785
 C        -2.907262         1.018948         1.047223
 C        -2.045632         1.671515        -0.174518
 C        -0.985614         0.502943         0.337013
 O         0.405478         0.575879         0.203816
 C        -1.769237        -0.768482        -0.116497
 H        -3.528567        -2.225140         1.913571
 H        -2.212144        -0.550170         3.322102
 H        -0.906874        -1.335994         2.403244
 H        -0.888744         1.504166         2.349428
 H        -3.674690         1.706704         1.627170
 H        -2.379538         1.488607        -1.149528
 H        -1.802801         2.764540        -0.049512
 H         0.815873        -0.010599        -0.422679
 H        -2.118877        -0.754072        -1.109314
 H        -1.192396        -1.684854        -0.117191
