19
Iteration:  1273charge 0 multiplicity 1
 O        -3.788533        -1.492521         0.833075
 C        -2.653881        -0.686656         1.211147
 C        -1.861572        -0.553917         2.515687
 C        -1.422705         0.754321         1.887336
 C        -2.771631         0.948725         1.183403
 C        -2.094967         1.536149        -0.001770
 C        -0.946251         0.548739         0.340903
 O         0.347552         0.599318        -0.176075
 C        -1.605986        -0.783388         0.160551
 H        -4.585313        -1.106706         1.293955
 H        -2.373502        -0.217744         3.484174
 H        -1.027455        -1.275281         2.746105
 H        -0.968273         1.720373         2.351984
 H        -3.559664         1.388555         1.844252
 H        -2.635173         1.327249        -0.972223
 H        -1.788225         2.606399         0.120329
 H         0.504416        -0.272127        -0.560104
 H        -2.087315        -0.870332        -0.870116
 H        -0.887094        -1.661319         0.145608
