19
Iteration:   429charge 0 multiplicity 1
 O        -3.833690        -1.504116         1.062120
 C        -2.681681        -0.691235         1.092332
 C        -1.822414        -0.567866         2.512334
 C        -1.437248         0.773271         1.917679
 C        -2.802760         0.928153         1.127600
 C        -2.069356         1.568790        -0.084918
 C        -0.920403         0.579432         0.421917
 O         0.311468         0.564702        -0.226034
 C        -1.580951        -0.825961         0.089255
 H        -4.359174        -1.197336         0.319457
 H        -2.466039        -0.546023         3.405491
 H        -1.021588        -1.281722         2.679550
 H        -0.931005         1.626776         2.481432
 H        -3.779331         1.271449         1.780373
 H        -2.603999         1.334205        -1.008028
 H        -1.703139         2.656119        -0.034137
 H         0.992735         0.968410         0.372990
 H        -1.869561        -0.818073        -0.964219
 H        -0.879558        -1.648510         0.342495
