19
Iteration:  1217charge 0 multiplicity 1
 O        -4.007311        -1.438902         1.367590
 C        -2.771020        -0.678794         1.056583
 C        -1.827734        -0.728776         2.205551
 C        -1.340396         0.673051         1.849432
 C        -2.791203         0.987284         1.103953
 C        -1.979052         1.543517        -0.203682
 C        -0.961673         0.541968         0.295257
 O         0.454742         0.802320         0.108510
 C        -1.691422        -0.891089        -0.146740
 H        -3.709253        -2.271303         1.868863
 H        -2.285054        -0.586318         3.249668
 H        -1.020476        -1.523861         2.209718
 H        -0.755399         1.449935         2.385454
 H        -3.518715         1.496189         1.696339
 H        -2.362625         1.467730        -1.261380
 H        -1.657192         2.629263        -0.001094
 H         0.638076         1.170160         0.982665
 H        -1.886637        -0.787323        -1.253707
 H        -1.013404        -1.703698         0.253005
