19
Iteration:  1712charge 0 multiplicity 1
 O        -3.802854        -1.455912         1.013489
 C        -2.643354        -0.686924         1.122792
 C        -1.791885        -0.382599         2.555822
 C        -1.500125         0.864443         1.841965
 C        -2.884058         0.927570         1.113952
 C        -2.137340         1.564098        -0.085252
 C        -0.965938         0.571214         0.335377
 O         0.375661         0.352167        -0.067208
 C        -1.600478        -0.852327         0.037018
 H        -3.521843        -2.416179         0.845322
 H        -2.519254        -0.315053         3.391543
 H        -0.907221        -0.978072         2.898589
 H        -1.202972         1.813599         2.266354
 H        -3.697023         1.448536         1.640295
 H        -2.368587         1.471706        -1.206239
 H        -1.793214         2.601244         0.151787
 H         1.072445         0.994166         0.177357
 H        -1.993871        -0.960897        -1.022137
 H        -0.714653        -1.555739         0.324711
