19
Iteration:  4398charge 0 multiplicity 1
 O        -4.001576        -1.442034         0.974279
 C        -2.805485        -0.674789         1.153260
 C        -1.989776        -0.527514         2.489293
 C        -1.344365         0.749915         1.805470
 C        -2.731860         1.044043         1.118728
 C        -2.071667         1.428338        -0.125761
 C        -0.873652         0.494398         0.394133
 O         0.434175         0.725454        -0.078997
 C        -1.468892        -0.907175         0.199962
 H        -3.980194        -1.815059         0.050364
 H        -2.542684        -0.014770         3.302997
 H        -1.432263        -1.399103         2.849338
 H        -0.705444         1.467261         2.402679
 H        -3.423312         1.688998         1.646492
 H        -2.549012         1.141232        -1.051315
 H        -1.905193         2.495887        -0.262894
 H         1.055475        -0.035529         0.199330
 H        -1.870545        -1.101287        -0.865450
 H        -0.897302        -1.724242         0.654158
