19
Iteration:  3995charge 0 multiplicity 1
 O        -3.776264        -1.483746         1.009576
 C        -2.698384        -0.623766         1.051005
 C        -1.921917        -0.566513         2.382343
 C        -1.454220         0.788419         1.874395
 C        -2.823334         0.925314         1.080823
 C        -1.947491         1.607917        -0.124400
 C        -0.983050         0.501724         0.482444
 O         0.340303         0.548133        -0.010372
 C        -1.579681        -0.791208         0.087656
 H        -4.417615        -1.410306         1.744906
 H        -2.447984        -0.518077         3.328559
 H        -1.166484        -1.302163         2.615761
 H        -0.996467         1.737502         2.304658
 H        -3.700781         1.431767         1.488085
 H        -2.220746         1.593023        -1.139767
 H        -1.708292         2.553197         0.343633
 H         0.634782        -0.355539        -0.267777
 H        -1.940804        -0.679945        -0.912255
 H        -0.914174        -1.665648         0.163292
