19
Iteration:  2427
 O        -3.813056        -1.605785         1.263818
 C        -2.755086        -0.614262         1.092934
 C        -1.973336        -0.529469         2.403168
 C        -1.438908         0.710085         1.804928
 C        -2.714397         1.114680         1.074091
 C        -2.019366         1.565041        -0.226839
 C        -0.963477         0.459336         0.321561
 O         0.452805         0.596294         0.105798
 C        -1.616240        -0.853983        -0.022838
 H        -4.338324        -1.692632         0.483928
 H        -2.485102        -0.334601         3.366847
 H        -1.222405        -1.386782         2.533093
 H        -0.668966         1.307873         2.423368
 H        -3.557835         1.751854         1.530672
 H        -2.492343         1.380151        -1.236172
 H        -1.882566         2.679053        -0.242579
 H         0.726419         1.510319         0.269740
 H        -2.100950        -0.960732        -1.046437
 H        -1.191568        -1.811687         0.321566
