19
Iteration:  3809charge 0 multiplicity 1
 O        -3.884844        -1.310815         0.895217
 C        -2.674001        -0.680737         1.134952
 C        -1.980007        -0.506134         2.538337
 C        -1.461238         0.778246         1.897704
 C        -2.774592         0.942525         1.147820
 C        -2.033940         1.344714        -0.091352
 C        -0.928365         0.468247         0.342736
 O         0.421231         0.731988        -0.101122
 C        -1.520182        -0.920763         0.127408
 H        -4.475731        -1.306670         1.693035
 H        -2.686948        -0.258489         3.367315
 H        -1.448776        -1.384025         2.910388
 H        -0.737277         1.597123         2.339868
 H        -3.770627         1.280077         1.471344
 H        -2.413916         1.123059        -1.097342
 H        -1.754841         2.405124        -0.005655
 H         1.053761         0.002875        -0.358859
 H        -1.795138        -1.005539        -0.967648
 H        -0.836142        -1.778534         0.434431
