19
Iteration:   893
 O        -3.729366        -1.771873         1.410504
 C        -2.790438        -0.705001         1.007333
 C        -2.013142        -0.431186         2.344999
 C        -1.449053         0.844611         1.782787
 C        -2.778376         1.071372         1.088156
 C        -1.996211         1.687351        -0.073096
 C        -0.900728         0.525614         0.323194
 O         0.499997         0.560219         0.048487
 C        -1.719864        -0.787470        -0.131213
 H        -4.385516        -1.918494         0.697506
 H        -2.542379        -0.242214         3.288081
 H        -1.345257        -1.223980         2.676639
 H        -0.905710         1.747962         2.332913
 H        -3.647811         1.439751         1.575609
 H        -2.488247         1.808771        -1.061765
 H        -1.646937         2.636376         0.183765
 H         0.752339        -0.317818        -0.217272
 H        -1.998583        -0.809427        -1.166739
 H        -1.093067        -1.685781        -0.074040
