19
Iteration:   120charge 0 multiplicity 1
 O        -3.984046        -1.124282         0.985365
 C        -2.712833        -0.600391         1.196668
 C        -1.852707        -0.590145         2.567611
 C        -1.326495         0.627264         1.825067
 C        -2.764706         0.904707         1.152526
 C        -2.107347         1.190956        -0.244385
 C        -0.948555         0.434483         0.309912
 O         0.334660         0.954184        -0.017742
 C        -1.443200        -0.997648         0.174687
 H        -4.010135        -2.121893         1.044915
 H        -2.372652        -0.397177         3.487339
 H        -1.138797        -1.371942         2.841886
 H        -0.763973         1.347541         2.377314
 H        -3.671190         1.315815         1.564516
 H        -2.633871         0.743509        -1.123146
 H        -1.872175         2.194988        -0.533889
 H         0.382057         0.999765        -1.012838
 H        -1.625572        -1.325941        -0.845338
 H        -0.790112        -1.753453         0.608172
