19
Iteration:   735charge 0 multiplicity 1
 O        -3.587332        -1.714091         1.096855
 C        -2.715554        -0.598035         1.142667
 C        -1.878516        -0.411760         2.399861
 C        -1.529946         0.912963         1.854398
 C        -2.790238         1.026169         1.137931
 C        -2.051499         1.617889        -0.067099
 C        -0.973005         0.499447         0.258060
 O         0.392913         0.409018         0.014868
 C        -1.705547        -0.739358         0.000516
 H        -4.509457        -1.563948         1.195384
 H        -2.670582        -0.309570         3.139458
 H        -1.217584        -1.192866         2.837209
 H        -1.096857         1.718194         2.303744
 H        -3.688668         1.616259         1.586593
 H        -2.573229         1.703962        -1.030425
 H        -1.717855         2.691920         0.243627
 H         0.727683        -0.465725        -0.155343
 H        -2.059109        -0.842924        -1.026023
 H        -1.092067        -1.652999         0.074934
