19
Iteration:  2243
 O        -3.708827        -1.679187         1.157081
 C        -2.703055        -0.647936         1.168956
 C        -1.876938        -0.367637         2.458748
 C        -1.427419         0.937918         1.768744
 C        -2.743190         1.039520         1.042582
 C        -2.099458         1.522997        -0.214363
 C        -0.973091         0.477154         0.249754
 O         0.443359         0.460085         0.138141
 C        -1.773117        -0.804170         0.004998
 H        -3.793464        -2.154654         0.310377
 H        -2.629778        -0.023891         3.160291
 H        -1.102033        -0.972828         2.933058
 H        -0.952550         1.866553         2.318178
 H        -3.612420         1.630577         1.540239
 H        -2.725526         1.462520        -1.095225
 H        -1.798352         2.561088        -0.127589
 H         0.630517         0.177074         1.028721
 H        -2.256962        -0.772399        -0.971308
 H        -1.101797        -1.655307         0.101935
