19
Iteration:   299
 O        -3.750520        -1.409089         0.795951
 C        -2.712489        -0.679344         1.255224
 C        -2.076605        -0.540835         2.572699
 C        -1.321611         0.659249         1.928690
 C        -2.659920         0.966644         1.313522
 C        -2.106800         1.410523         0.018216
 C        -0.948494         0.483961         0.342125
 O         0.248794         0.734205        -0.475696
 C        -1.512499        -0.938665         0.345858
 H        -3.787148        -0.893665        -0.103727
 H        -2.796099        -0.240529         3.350604
 H        -1.469066        -1.337563         2.946841
 H        -0.915762         1.583252         2.471515
 H        -3.455841         1.529408         1.988325
 H        -2.487501         1.321121        -0.947090
 H        -1.528582         2.413317        -0.051764
 H         0.572651         1.664059        -0.375335
 H        -1.888985        -1.248025        -0.591068
 H        -0.908374        -1.822246         0.532214
