19
Iteration:   957
 O        -4.001901        -1.230309         0.924710
 C        -2.661224        -0.712674         1.176134
 C        -1.844176        -0.523753         2.557610
 C        -1.362294         0.745714         1.832686
 C        -2.727619         0.861391         1.259576
 C        -2.226710         1.316006        -0.085350
 C        -0.965790         0.485287         0.354641
 O         0.400513         0.687154        -0.147288
 C        -1.403857        -0.900243         0.175737
 H        -4.269175        -1.170817         0.037089
 H        -2.347506        -0.299794         3.505076
 H        -1.131092        -1.315757         2.788982
 H        -0.867424         1.668256         2.427267
 H        -3.648279         1.230652         1.599031
 H        -2.768656         0.993089        -1.049010
 H        -1.950886         2.364157        -0.208405
 H         0.342236         1.293017        -0.915104
 H        -1.561685        -1.249181        -0.821352
 H        -0.628947        -1.565370         0.621380
