19
Iteration:   398
 O        -3.793234        -1.537685         1.354456
 C        -2.724853        -0.640454         1.059382
 C        -1.788953        -0.641936         2.338484
 C        -1.374014         0.725706         1.773605
 C        -2.807406         0.938790         1.023557
 C        -2.100252         1.621635        -0.167667
 C        -0.958859         0.554708         0.277712
 O         0.473136         0.617596         0.156982
 C        -1.759539        -0.823106        -0.083660
 H        -4.544686        -1.372543         0.701883
 H        -2.318546        -0.744943         3.270562
 H        -1.025879        -1.409548         2.268755
 H        -0.715982         1.372534         2.400994
 H        -3.793741         1.330891         1.553638
 H        -2.701334         1.609071        -1.068218
 H        -1.702919         2.723511         0.017332
 H         0.723651         1.367634         0.699092
 H        -2.221706        -0.712819        -1.059292
 H        -1.155854        -1.756813         0.056264
