19
Iteration:  1362
 O        -3.844709        -1.485658         1.136521
 C        -2.758908        -0.615576         1.122643
 C        -1.742530        -0.569107         2.401771
 C        -1.425675         0.797290         1.779788
 C        -2.804814         0.995928         1.056052
 C        -2.147098         1.449431        -0.235510
 C        -0.963851         0.508749         0.327406
 O         0.438894         0.666996         0.183010
 C        -1.615796        -0.908722         0.023031
 H        -4.477621        -1.279256         1.832566
 H        -2.236541        -0.518611         3.427264
 H        -0.913808        -1.321923         2.495184
 H        -0.812254         1.616416         2.285534
 H        -3.608633         1.480046         1.646332
 H        -2.536253         1.157071        -1.257209
 H        -1.885118         2.510089        -0.221275
 H         0.747662         0.876655        -0.722582
 H        -2.013293        -1.045123        -1.019481
 H        -1.018321        -1.756636         0.396965
