19
Iteration:  4463
 O        -3.924526        -1.490058         1.094108
 C        -2.760058        -0.619030         1.179989
 C        -2.016050        -0.608204         2.547102
 C        -1.389199         0.747378         1.827044
 C        -2.740039         0.949111         1.025424
 C        -2.019198         1.586894        -0.210615
 C        -0.873910         0.544680         0.310593
 O         0.450907         0.634435         0.032135
 C        -1.572741        -0.842681         0.138410
 H        -4.155751        -1.766592         0.185709
 H        -2.546404        -0.163542         3.334584
 H        -1.424861        -1.484173         2.693286
 H        -1.038022         1.630156         2.444454
 H        -3.417318         1.615596         1.477346
 H        -2.280849         1.302830        -1.248145
 H        -1.919218         2.678784        -0.062492
 H         0.849708         0.011692        -0.562539
 H        -1.824013        -1.058078        -0.970146
 H        -0.963554        -1.654766         0.554928
