19
Iteration:  1325
 O        -3.941417        -1.322490         0.863715
 C        -2.678657        -0.655266         1.194515
 C        -1.959515        -0.561173         2.677641
 C        -1.331303         0.653111         1.979983
 C        -2.719908         0.864892         1.182815
 C        -2.066786         1.323899        -0.141821
 C        -0.898030         0.457601         0.332835
 O         0.311145         0.927680        -0.262046
 C        -1.427596        -1.003125         0.192552
 H        -4.673996        -0.632653         0.914600
 H        -2.692758        -0.092190         3.400367
 H        -1.324940        -1.323537         3.187903
 H        -0.761322         1.484545         2.401119
 H        -3.600026         1.333269         1.671623
 H        -2.526381         1.175734        -1.163054
 H        -1.819140         2.444978         0.004608
 H         0.125541         0.675995        -1.167697
 H        -1.630970        -1.362845        -0.851627
 H        -0.778205        -1.824411         0.619428
