19
Iteration:   934charge 0 multiplicity 1
 O        -3.920041        -1.387571         1.105280
 C        -2.683333        -0.611749         1.174224
 C        -1.756857        -0.566484         2.427339
 C        -1.390240         0.784046         1.826128
 C        -2.769311         0.913770         1.106928
 C        -2.111876         1.438557        -0.160172
 C        -0.953555         0.486109         0.337206
 O         0.410497         0.729776         0.061272
 C        -1.629067        -0.943001         0.109101
 H        -4.163264        -1.454758         0.133180
 H        -2.292857        -0.577767         3.372785
 H        -0.956525        -1.328563         2.496019
 H        -0.936630         1.654508         2.419751
 H        -3.657037         1.312225         1.536324
 H        -2.554032         1.202693        -1.173012
 H        -1.836641         2.517996        -0.136660
 H         0.503793         0.637113        -0.921279
 H        -2.075034        -1.036154        -0.876827
 H        -1.098843        -1.894330         0.323448
