19
Iteration:  4236charge 0 multiplicity 1
 O        -3.858137        -1.321581         0.845182
 C        -2.697889        -0.618135         1.080235
 C        -2.036793        -0.541206         2.526493
 C        -1.378516         0.694644         1.893813
 C        -2.736704         0.961347         1.177299
 C        -2.038036         1.474149        -0.059052
 C        -0.948653         0.464279         0.395661
 O         0.412715         0.643381        -0.051787
 C        -1.530177        -0.915584         0.133226
 H        -3.822240        -2.027333         1.469789
 H        -2.829120        -0.184226         3.203293
 H        -1.406193        -1.344080         2.912438
 H        -0.835484         1.534948         2.422642
 H        -3.665198         1.273545         1.699447
 H        -2.393073         1.424505        -1.062706
 H        -1.729092         2.546076         0.019086
 H         0.246372         0.565093        -0.980921
 H        -1.853920        -0.864469        -0.840295
 H        -0.932699        -1.784591         0.358587
