19
Iteration:   978
 O        -3.818931        -1.291122         0.925472
 C        -2.664514        -0.654331         1.237132
 C        -1.996024        -0.641553         2.585164
 C        -1.329987         0.698040         1.945878
 C        -2.719992         0.938038         1.216531
 C        -2.120621         1.378602        -0.183061
 C        -0.914516         0.483767         0.321256
 O         0.289565         0.748895        -0.336225
 C        -1.517114        -0.966354         0.322568
 H        -4.008740        -1.151649        -0.053856
 H        -2.768533        -0.285548         3.289677
 H        -1.457142        -1.500232         3.020271
 H        -0.725289         1.486278         2.595581
 H        -3.449205         1.525790         1.706649
 H        -2.623824         1.114863        -1.190423
 H        -2.017022         2.487242        -0.157043
 H         0.543340         1.708970        -0.400495
 H        -1.814737        -1.312252        -0.672345
 H        -0.806293        -1.716711         0.755329
