19
Iteration:  1911
 O        -3.896687        -1.400804         1.320298
 C        -2.674326        -0.726765         1.138041
 C        -1.641643        -0.552055         2.272029
 C        -1.484501         0.832941         1.721948
 C        -2.843786         0.892062         1.000715
 C        -2.105722         1.518648        -0.273768
 C        -0.962580         0.528063         0.376185
 O         0.430023         0.607123         0.244649
 C        -1.642945        -0.877868        -0.033392
 H        -4.474235        -1.169637         0.587395
 H        -2.086506        -0.582074         3.268623
 H        -0.823284        -1.307213         2.306629
 H        -0.810782         1.607351         2.202226
 H        -3.818220         1.252420         1.437456
 H        -2.424071         1.269560        -1.289843
 H        -2.013252         2.646537        -0.313980
 H         0.765473         0.839897         1.142600
 H        -2.235736        -0.879010        -1.010170
 H        -1.097084        -1.843668        -0.105083
