19
Iteration:  4256charge 0 multiplicity 1
 O        -3.956659        -1.312630         0.919127
 C        -2.705451        -0.720418         1.144266
 C        -2.045067        -0.619625         2.515780
 C        -1.460260         0.753636         1.997650
 C        -2.737870         0.965636         1.111791
 C        -1.934563         1.522416        -0.050634
 C        -0.882767         0.496728         0.315462
 O         0.373313         0.639356        -0.160606
 C        -1.482904        -0.896926         0.206461
 H        -3.835575        -2.275281         0.747699
 H        -2.774855        -0.397208         3.285566
 H        -1.345326        -1.455316         2.735453
 H        -0.995285         1.535346         2.688978
 H        -3.552603         1.586969         1.358467
 H        -2.277873         1.458565        -1.087703
 H        -1.504653         2.522634        -0.006537
 H         0.377315         1.060624        -1.070160
 H        -1.747085        -1.274471        -0.764784
 H        -0.780103        -1.485543         0.758570
