19
Iteration:  2014charge 0 multiplicity 1
 O        -3.935041        -1.216532         0.926405
 C        -2.654036        -0.718299         1.159896
 C        -1.993768        -0.497170         2.668078
 C        -1.429858         0.821669         1.854127
 C        -2.779805         0.864943         1.123869
 C        -2.081886         1.329023        -0.226562
 C        -0.925120         0.503364         0.339481
 O         0.295861         0.722420        -0.230947
 C        -1.360841        -0.930101         0.314001
 H        -3.768804        -2.073717         0.407311
 H        -2.714749        -0.146813         3.413545
 H        -1.234468        -1.157882         3.059159
 H        -0.965747         1.645207         2.398318
 H        -3.655848         1.244326         1.679475
 H        -2.414638         0.835256        -1.163825
 H        -1.766367         2.377901        -0.244930
 H         0.894524        -0.006525        -0.019018
 H        -1.557611        -1.272263        -0.667960
 H        -0.646900        -1.487602         0.878447
