19
Iteration:  4263
 O        -3.973957        -1.327188         0.941904
 C        -2.751604        -0.657566         1.102160
 C        -2.019514        -0.615558         2.550788
 C        -1.479732         0.693082         1.975101
 C        -2.714993         0.976939         1.087265
 C        -1.935688         1.510145        -0.060666
 C        -0.926169         0.512997         0.327074
 O         0.463009         0.645614        -0.190039
 C        -1.501143        -0.908405         0.276706
 H        -3.781718        -2.167561         0.558035
 H        -2.735926        -0.546586         3.388626
 H        -1.185605        -1.321554         2.802269
 H        -1.129050         1.533920         2.525050
 H        -3.637060         1.497579         1.444080
 H        -2.302553         1.460461        -1.151594
 H        -1.699163         2.576728         0.130373
 H         0.272094         1.209480        -0.936629
 H        -1.590733        -1.193812        -0.884464
 H        -0.842699        -1.761970         0.665095
