19
Iteration:   180
 O        -3.697118        -1.636719         1.119544
 C        -2.665082        -0.637514         1.166163
 C        -1.999226        -0.489891         2.499641
 C        -1.390681         0.848958         1.840224
 C        -2.807683         1.008802         1.114381
 C        -2.054209         1.576186        -0.143148
 C        -0.977803         0.579943         0.315472
 O         0.374443         0.451770        -0.175426
 C        -1.633323        -0.804819         0.160169
 H        -4.082071        -1.537058         0.272533
 H        -2.760630        -0.314287         3.303507
 H        -1.300776        -1.324784         2.757027
 H        -1.201240         1.843014         2.368734
 H        -3.725936         1.395822         1.684851
 H        -2.555865         1.531795        -1.121280
 H        -1.727408         2.649686         0.045569
 H         1.050199         0.760035         0.440973
 H        -2.024216        -0.847145        -0.889095
 H        -0.919772        -1.672655         0.266996
