19
Iteration:  3923
 O        -3.923179        -1.259633         0.904555
 C        -2.664789        -0.683237         1.098985
 C        -1.902024        -0.604549         2.472490
 C        -1.482510         0.752315         1.924199
 C        -2.752938         1.014092         1.112612
 C        -2.052877         1.420416        -0.158765
 C        -0.896798         0.445083         0.366576
 O         0.331319         0.814044        -0.123345
 C        -1.469997        -1.028276         0.213670
 H        -4.351456        -1.129311         1.804961
 H        -2.634702        -0.701227         3.276195
 H        -1.158843        -1.402894         2.752982
 H        -0.766377         1.089090         2.641963
 H        -3.798769         1.264351         1.369465
 H        -2.454334         1.249109        -1.196276
 H        -1.461048         2.379329        -0.059044
 H         0.887631         0.251457         0.515773
 H        -1.816475        -1.117664        -0.822822
 H        -1.067669        -2.008384         0.516571
