19
Iteration:  3246
 O        -3.890428        -1.412459         1.154978
 C        -2.737416        -0.595206         1.158257
 C        -1.930984        -0.606594         2.453780
 C        -1.351755         0.699190         1.754854
 C        -2.767671         0.970677         1.017615
 C        -1.982837         1.397749        -0.198131
 C        -0.931273         0.433850         0.375570
 O         0.481583         0.874307         0.124958
 C        -1.728774        -0.905582         0.053796
 H        -3.800974        -2.118187         0.499737
 H        -2.429183        -0.322420         3.420152
 H        -1.237464        -1.449453         2.636280
 H        -1.071850         1.638071         2.315035
 H        -3.525565         1.508185         1.626632
 H        -2.554758         1.260918        -1.170322
 H        -1.551202         2.454644        -0.254971
 H         0.793283         0.285397        -0.555362
 H        -2.334715        -0.907562        -0.825084
 H        -1.326857        -1.938759         0.124795
