19
Iteration:  4887
 O        -3.938185        -1.255005         1.022810
 C        -2.696981        -0.639646         1.132962
 C        -1.978614        -0.609131         2.507107
 C        -1.438276         0.756298         1.884371
 C        -2.702036         0.948321         1.007394
 C        -2.017271         1.472299        -0.132731
 C        -0.950896         0.499420         0.384035
 O         0.317596         0.735823        -0.072230
 C        -1.482398        -0.961616         0.191006
 H        -3.759347        -2.111153         0.599445
 H        -2.648179        -0.622176         3.340935
 H        -1.320295        -1.437855         2.811690
 H        -0.856579         1.510967         2.477462
 H        -3.664518         1.297165         1.463567
 H        -2.341997         1.251288        -1.195609
 H        -1.649966         2.498581         0.034503
 H         0.712854        -0.099354        -0.434147
 H        -1.507885        -1.421582        -0.875247
 H        -0.599355        -1.612481         0.551511
