19
Iteration:  2983
 O        -3.867840        -1.325687         0.860496
 C        -2.721531        -0.620378         1.220267
 C        -1.888451        -0.619826         2.549438
 C        -1.342257         0.765617         1.844629
 C        -2.724159         0.982890         1.212731
 C        -2.194116         1.404253        -0.174916
 C        -0.974322         0.462189         0.268148
 O         0.364001         0.650161        -0.031372
 C        -1.482520        -0.922510         0.254492
 H        -3.957536        -1.621791        -0.017669
 H        -2.420336        -0.327192         3.467338
 H        -1.233584        -1.458133         2.766417
 H        -0.729285         1.585680         2.176412
 H        -3.527143         1.562374         1.561708
 H        -2.758513         1.074358        -1.022522
 H        -1.945033         2.447072        -0.232379
 H         0.402050         1.541120        -0.366583
 H        -1.828661        -1.265185        -0.688065
 H        -0.764950        -1.639820         0.666433
