19
Iteration:  3536
 O        -3.864044        -1.564997         1.204052
 C        -2.732559        -0.653856         1.096428
 C        -1.932651        -0.517588         2.414352
 C        -1.489836         0.858142         1.814901
 C        -2.806252         1.014764         0.983297
 C        -1.939896         1.447655        -0.176508
 C        -0.910370         0.469305         0.368549
 O         0.424682         0.638989        -0.007336
 C        -1.603154        -0.863684         0.074274
 H        -4.634502        -1.063374         0.836791
 H        -2.696097        -0.447680         3.241238
 H        -1.198549        -1.269518         2.784706
 H        -0.816522         1.653515         2.286407
 H        -3.524942         1.579439         1.545766
 H        -2.245761         1.178797        -1.214559
 H        -1.523338         2.489931        -0.004042
 H         0.909878         0.732948         0.830377
 H        -2.082268        -0.915639        -0.881787
 H        -0.933345        -1.668586         0.194951
