19
Iteration:   752charge 0 multiplicity 1
 O        -3.723197        -1.610546         1.047862
 C        -2.691215        -0.671984         1.146142
 C        -1.905698        -0.500419         2.467180
 C        -1.386671         0.758094         1.812969
 C        -2.825388         1.025392         1.078416
 C        -2.077104         1.586806        -0.168566
 C        -1.004714         0.619091         0.371177
 O         0.388361         0.569874        -0.038499
 C        -1.645029        -0.819233         0.099551
 H        -4.464674        -1.257944         1.542939
 H        -2.336316        -0.318191         3.502199
 H        -1.226375        -1.370964         2.696054
 H        -0.796265         1.631315         2.305848
 H        -3.644405         1.453280         1.584480
 H        -2.377399         1.436580        -1.235209
 H        -1.761643         2.591990        -0.063952
 H         0.632710        -0.318464         0.215183
 H        -2.022351        -0.958603        -0.953349
 H        -0.964854        -1.694785         0.240125
