19
Iteration:  3849charge 0 multiplicity 1
 O        -3.720430        -1.657524         0.997782
 C        -2.809326        -0.595432         1.146578
 C        -1.990538        -0.498982         2.399734
 C        -1.404879         0.822934         1.850997
 C        -2.860370         1.082684         1.054205
 C        -1.895361         1.592095        -0.077883
 C        -0.956821         0.460341         0.401697
 O         0.381673         0.516588        -0.045176
 C        -1.651907        -0.750927         0.101140
 H        -4.233627        -1.509492         1.811028
 H        -2.666138        -0.351421         3.262527
 H        -1.192549        -1.312562         2.550369
 H        -0.861125         1.604025         2.408905
 H        -3.700848         1.629045         1.514745
 H        -2.185277         1.632544        -1.192637
 H        -1.452963         2.583230         0.020421
 H         0.708399        -0.364876         0.165467
 H        -2.024485        -0.964416        -0.940067
 H        -0.892920        -1.530290         0.305111
