19
Iteration:  3967
 O        -3.826036        -1.523167         0.818014
 C        -2.741666        -0.641716         1.178220
 C        -1.979026        -0.557660         2.506740
 C        -1.393315         0.725119         1.970604
 C        -2.763070         1.048382         1.207768
 C        -2.040900         1.509999        -0.122733
 C        -0.939728         0.459123         0.335938
 O         0.476227         0.712782        -0.161233
 C        -1.616577        -0.872534         0.206883
 H        -4.776110        -1.261487         1.050824
 H        -2.575036        -0.088165         3.379831
 H        -1.344274        -1.361377         3.018945
 H        -0.872525         1.481570         2.548811
 H        -3.594764         1.692330         1.575793
 H        -2.643725         1.391097        -1.114190
 H        -1.708375         2.584205         0.071073
 H         0.943027        -0.166956        -0.421954
 H        -2.040561        -1.178287        -0.823003
 H        -0.844830        -1.657200         0.466199
