19
Iteration:  1853charge 0 multiplicity 1
 O        -3.856045        -1.454803         0.852141
 C        -2.768988        -0.668512         1.242786
 C        -1.992486        -0.523079         2.601327
 C        -1.358479         0.734834         1.884639
 C        -2.696560         0.934454         1.186293
 C        -2.036257         1.525048        -0.099205
 C        -0.916239         0.486602         0.297192
 O         0.349821         0.628657        -0.216275
 C        -1.531908        -0.837732         0.194605
 H        -3.751685        -2.363773         1.239248
 H        -2.733554        -0.101101         3.329949
 H        -1.426359        -1.394673         3.021173
 H        -0.894514         1.555109         2.421269
 H        -3.483843         1.587512         1.567964
 H        -2.395940         1.353651        -1.140290
 H        -1.945948         2.539056         0.230942
 H         0.437389         1.482185        -0.681753
 H        -1.944739        -1.050532        -0.830076
 H        -0.900997        -1.693927         0.637335
