19
Iteration:  1082charge 0 multiplicity 1
 O        -3.863197        -1.478013         1.218956
 C        -2.749018        -0.623501         1.169288
 C        -1.698645        -0.728317         2.370721
 C        -1.374550         0.701591         1.813127
 C        -2.798730         0.974119         1.082167
 C        -2.160332         1.507388        -0.217248
 C        -0.978360         0.547174         0.308949
 O         0.446553         0.624064         0.144458
 C        -1.696218        -0.778705        -0.048950
 H        -4.558413        -1.106184         0.699037
 H        -2.068799        -0.711721         3.413487
 H        -0.905970        -1.462429         2.116214
 H        -0.932028         1.547470         2.274332
 H        -3.582350         1.497963         1.727044
 H        -2.420538         1.433107        -1.288614
 H        -1.863744         2.516650         0.175519
 H         0.768386         1.550117        -0.032778
 H        -1.983089        -0.653285        -1.106242
 H        -1.069346        -1.638841         0.154500
