19
Iteration:  4350charge 0 multiplicity 1
 O        -3.934624        -1.546793         1.239148
 C        -2.765022        -0.709283         1.097912
 C        -1.875992        -0.534795         2.475354
 C        -1.462295         0.814195         1.821358
 C        -2.834131         0.933346         0.966058
 C        -1.863177         1.591153        -0.204428
 C        -0.924082         0.527744         0.398225
 O         0.440055         0.559339         0.057238
 C        -1.647482        -0.826262        -0.019909
 H        -4.421639        -1.195432         0.499797
 H        -2.466362        -0.452889         3.379020
 H        -1.006696        -1.217330         2.481129
 H        -1.303990         1.695027         2.380039
 H        -3.745135         1.407791         1.378976
 H        -1.905568         1.527462        -1.347379
 H        -1.592209         2.635742        -0.062178
 H         0.947500         0.603980         0.837272
 H        -1.928820        -0.541474        -1.073321
 H        -0.953075        -1.710551         0.049661
