19
Iteration:  4437
 O        -3.840613        -1.281710         0.954509
 C        -2.648936        -0.676355         1.139522
 C        -2.008559        -0.483353         2.502741
 C        -1.475689         0.820255         1.881825
 C        -2.790814         0.988856         1.107828
 C        -2.073894         1.400613        -0.044597
 C        -0.870169         0.384736         0.464530
 O         0.378780         0.663120        -0.117509
 C        -1.511918        -0.962978         0.160446
 H        -3.943157        -1.664298         0.074794
 H        -2.771242        -0.230519         3.291494
 H        -1.156656        -1.210712         2.628843
 H        -1.014642         1.599212         2.435494
 H        -3.767492         1.430240         1.416701
 H        -2.601816         1.200185        -1.068744
 H        -1.658534         2.404242         0.056679
 H         0.669164         0.014434        -0.729915
 H        -1.566369        -0.910323        -0.894508
 H        -0.991961        -1.870580         0.528359
