19
Iteration:  3686
 O        -3.856423        -1.552050         0.967020
 C        -2.777023        -0.627573         1.154211
 C        -1.882133        -0.527168         2.453015
 C        -1.377677         0.791542         1.839857
 C        -2.763247         1.080239         1.101358
 C        -1.956269         1.464095        -0.235955
 C        -0.978864         0.474925         0.402685
 O         0.407510         0.664184         0.069512
 C        -1.662327        -0.806513         0.066811
 H        -3.953267        -1.948163         1.865652
 H        -2.381008        -0.262412         3.371295
 H        -1.274486        -1.440358         2.510591
 H        -0.869738         1.531712         2.490057
 H        -3.509356         1.770332         1.519809
 H        -2.455605         1.359063        -1.208809
 H        -1.699073         2.480936        -0.225605
 H         0.676604        -0.261006        -0.057759
 H        -2.130409        -0.932736        -0.968326
 H        -1.202195        -1.762742         0.402646
