19
Iteration:   424charge 0 multiplicity 1
 O        -3.825878        -1.512550         1.114391
 C        -2.690560        -0.680193         1.090770
 C        -1.798852        -0.570761         2.465060
 C        -1.465384         0.788964         1.854879
 C        -2.837988         0.928982         1.154658
 C        -2.045426         1.565861        -0.060396
 C        -0.948375         0.569726         0.417600
 O         0.339276         0.557626        -0.178473
 C        -1.578914        -0.821085         0.041813
 H        -4.408338        -1.133449         0.380903
 H        -2.487194        -0.587566         3.329597
 H        -0.956655        -1.291704         2.616562
 H        -1.098784         1.602737         2.447708
 H        -3.596426         1.324096         1.687485
 H        -2.528720         1.262900        -1.013423
 H        -1.714218         2.571456        -0.059428
 H         0.976735         0.939494         0.428918
 H        -1.855324        -0.648359        -1.016260
 H        -0.913147        -1.629631         0.321092
