19
Iteration:  4759charge 0 multiplicity 1
 O        -3.899057        -1.398087         1.117619
 C        -2.721451        -0.669512         1.060070
 C        -1.968134        -0.521986         2.446311
 C        -1.388420         0.730041         1.896439
 C        -2.678986         1.031612         1.086579
 C        -2.014246         1.478910        -0.213138
 C        -0.949281         0.352845         0.359589
 O         0.416751         0.793666         0.065796
 C        -1.620337        -0.958322         0.122503
 H        -4.025998        -1.444777         0.143241
 H        -2.662803        -0.259127         3.301284
 H        -1.325693        -1.420945         2.667713
 H        -0.794490         1.452044         2.421219
 H        -3.710653         1.328641         1.528826
 H        -2.630783         1.322432        -1.099712
 H        -1.416573         2.418880        -0.227131
 H         0.472459         0.412900        -0.830213
 H        -1.849078        -1.260343        -0.875251
 H        -1.000328        -1.676863         0.619655
