19
Iteration:  3717charge 0 multiplicity 1
 O        -3.754138        -1.587943         1.053814
 C        -2.710776        -0.645854         1.138252
 C        -1.933558        -0.481269         2.497838
 C        -1.475898         0.756485         1.907577
 C        -2.850794         1.037763         1.057660
 C        -2.018771         1.618307        -0.153373
 C        -0.910225         0.480429         0.335656
 O         0.457422         0.521612        -0.051286
 C        -1.645168        -0.806601         0.002982
 H        -4.502850        -1.176549         1.500609
 H        -2.569124        -0.264006         3.379250
 H        -1.330845        -1.436219         2.685415
 H        -0.957176         1.571935         2.341093
 H        -3.715073         1.592455         1.429109
 H        -2.451546         1.824791        -1.203212
 H        -1.628895         2.611971         0.228106
 H         0.786154        -0.064364         0.681431
 H        -2.079532        -0.847816        -1.042682
 H        -1.006115        -1.752060         0.185283
