19
Iteration:   692charge 0 multiplicity 1
 O        -3.773115        -1.668932         1.189894
 C        -2.745331        -0.669234         1.132481
 C        -1.921810        -0.541679         2.437031
 C        -1.377917         0.835815         1.781458
 C        -2.760192         0.989288         1.079720
 C        -2.001910         1.534219        -0.199651
 C        -0.991926         0.586163         0.315273
 O         0.390794         0.604545         0.067790
 C        -1.633518        -0.803839         0.065346
 H        -4.597810        -1.252232         1.040943
 H        -2.416874        -0.220715         3.363877
 H        -1.234603        -1.404290         2.652221
 H        -1.073439         1.646685         2.355901
 H        -3.614537         1.580899         1.598252
 H        -2.417953         1.487519        -1.176478
 H        -1.589625         2.575041         0.015766
 H         0.482427         0.572307        -0.893682
 H        -2.074123        -0.991617        -0.936321
 H        -0.901208        -1.624416         0.198264
