19
Iteration:  4924
 O        -4.011939        -1.423373         0.870555
 C        -2.778761        -0.654258         1.128263
 C        -1.901459        -0.517912         2.602371
 C        -1.319554         0.734983         1.858086
 C        -2.701663         0.924411         1.131320
 C        -2.092568         1.421166        -0.126957
 C        -0.924453         0.539028         0.349318
 O         0.495259         0.687731        -0.073946
 C        -1.617964        -0.847327         0.102749
 H        -3.955977        -2.134438         1.492544
 H        -2.578152        -0.191649         3.476490
 H        -1.093586        -1.238927         2.822459
 H        -0.868739         1.610501         2.284767
 H        -3.583306         1.501477         1.513864
 H        -2.498732         1.065532        -1.037329
 H        -1.810478         2.470473        -0.272310
 H         0.910964         0.415460         0.741105
 H        -2.067105        -0.741110        -0.893692
 H        -0.906017        -1.666449         0.244150
