19
Iteration:  4732charge 0 multiplicity 1
 O        -3.950264        -1.418915         0.911817
 C        -2.774158        -0.598277         1.158601
 C        -1.957727        -0.513674         2.606429
 C        -1.320995         0.724504         1.871659
 C        -2.759718         0.924391         1.153505
 C        -2.068590         1.410681        -0.170893
 C        -0.912620         0.479771         0.285575
 O         0.447217         0.652406        -0.034256
 C        -1.532959        -0.831524         0.223068
 H        -3.965964        -1.351545        -0.061376
 H        -2.418928        -0.019683         3.435928
 H        -1.498891        -1.462764         2.859424
 H        -0.922334         1.569094         2.516191
 H        -3.494813         1.385746         1.747254
 H        -2.507122         1.180912        -1.156135
 H        -1.904307         2.487528        -0.155272
 H         0.527974         0.592024        -0.994911
 H        -1.844370        -1.245787        -0.812139
 H        -0.753831        -1.504412         0.721487
