19
Iteration:   909charge 0 multiplicity 1
 O        -3.782029        -1.653514         1.361829
 C        -2.739772        -0.612065         1.135986
 C        -1.887681        -0.569559         2.385806
 C        -1.421821         0.715981         1.754296
 C        -2.813835         1.068165         1.065887
 C        -1.961403         1.573985        -0.181101
 C        -0.983660         0.529455         0.266390
 O         0.434167         0.689907         0.125846
 C        -1.695285        -0.797943        -0.062265
 H        -4.237955        -1.896287         0.480024
 H        -2.743479        -0.364669         3.095149
 H        -1.203560        -1.398937         2.731347
 H        -0.865520         1.380828         2.286456
 H        -3.548401         1.716899         1.651468
 H        -2.281888         1.429807        -1.220795
 H        -1.617421         2.671374        -0.030538
 H         0.756031        -0.000394        -0.470772
 H        -2.236906        -0.717351        -1.068813
 H        -1.161338        -1.781126         0.053719
