19
Iteration:   520
 O        -3.953156        -1.349465         1.154014
 C        -2.674104        -0.691956         1.115418
 C        -1.723485        -0.599142         2.333458
 C        -1.371438         0.776863         1.840689
 C        -2.838890         0.862358         1.095223
 C        -2.197070         1.525724        -0.102871
 C        -0.924151         0.536392         0.284547
 O         0.453467         0.709017         0.109387
 C        -1.623004        -0.883050        -0.030140
 H        -3.974763        -2.264968         1.602013
 H        -2.270286        -0.500751         3.245649
 H        -0.945336        -1.345075         2.513133
 H        -0.973865         1.574816         2.406401
 H        -3.661139         1.288350         1.614910
 H        -2.734692         1.427142        -1.058942
 H        -1.953968         2.602644         0.137842
 H         0.973880         0.230914        -0.576280
 H        -2.088237        -0.874783        -1.012550
 H        -0.905101        -1.689782         0.153522
