19
Iteration:  1499charge 0 multiplicity 1
 O        -3.983977        -1.170956         0.915178
 C        -2.654209        -0.679170         1.244199
 C        -1.871989        -0.470965         2.571600
 C        -1.343008         0.770013         1.825442
 C        -2.719833         0.817258         1.156249
 C        -2.200383         1.058536        -0.289223
 C        -0.915331         0.436310         0.359082
 O         0.283178         0.974271        -0.086516
 C        -1.363782        -1.064865         0.181812
 H        -4.502426        -0.312729         1.007800
 H        -2.485772        -0.317022         3.472220
 H        -1.032696        -1.099772         2.903929
 H        -0.704711         1.640261         2.327863
 H        -3.625026         1.455371         1.571054
 H        -2.683537         0.629061        -1.138746
 H        -2.125165         2.162251        -0.509367
 H         0.777886         0.402459         0.543235
 H        -1.792184        -1.475062        -0.775528
 H        -0.547086        -1.814837         0.412992
