19
Iteration:  1139charge 0 multiplicity 1
 O        -3.781180        -1.443130         0.799000
 C        -2.743479        -0.601382         1.255903
 C        -2.055698        -0.613376         2.559238
 C        -1.353172         0.653666         2.025279
 C        -2.699089         0.991378         1.294182
 C        -2.021938         1.509541         0.035872
 C        -0.890367         0.549872         0.277227
 O         0.236938         0.674041        -0.498054
 C        -1.566207        -0.884560         0.355204
 H        -3.490719        -1.691061        -0.151759
 H        -2.609430        -0.318869         3.495610
 H        -1.557362        -1.583083         2.846345
 H        -0.847665         1.293664         2.627229
 H        -3.535399         1.348524         1.848112
 H        -2.256099         1.355743        -1.038496
 H        -1.761127         2.623954         0.098240
 H         0.657595         1.527066        -0.512628
 H        -1.851448        -1.297727        -0.660152
 H        -0.839081        -1.696581         0.657896
