19
Iteration:   130
 O        -3.994376        -1.126616         0.993389
 C        -2.712582        -0.665013         1.236262
 C        -1.901017        -0.633427         2.529691
 C        -1.383910         0.723255         1.859870
 C        -2.707001         0.916818         1.135660
 C        -2.099795         1.183245        -0.218893
 C        -0.911885         0.402588         0.330970
 O         0.324716         0.928003        -0.100515
 C        -1.396598        -1.007453         0.241221
 H        -3.893891        -2.058096         0.559738
 H        -2.402217        -0.277562         3.410276
 H        -1.224843        -1.499635         2.573699
 H        -0.712816         1.500249         2.165929
 H        -3.460989         1.527864         1.506218
 H        -2.659740         0.731948        -1.121228
 H        -1.895822         2.209467        -0.183423
 H         0.180323         1.541806        -0.878592
 H        -1.709703        -1.186476        -0.787278
 H        -0.907955        -1.819295         0.768919
