19
Iteration:  4208charge 0 multiplicity 1
 O        -3.931026        -1.470992         0.894734
 C        -2.773224        -0.630291         1.182503
 C        -1.851670        -0.622675         2.421198
 C        -1.366975         0.759526         1.816511
 C        -2.761472         1.003808         1.204977
 C        -2.050880         1.468557        -0.177800
 C        -0.973871         0.551074         0.279274
 O         0.534157         0.685361         0.170139
 C        -1.662203        -0.875507         0.084002
 H        -4.491095        -1.406153         1.679208
 H        -2.393560        -0.339965         3.353556
 H        -1.176543        -1.503007         2.510058
 H        -0.766551         1.465360         2.321952
 H        -3.709015         1.420304         1.661375
 H        -2.405744         1.387117        -1.272111
 H        -1.751016         2.542610        -0.138609
 H         0.721162         0.075670        -0.526485
 H        -2.205360        -0.671715        -0.933159
 H        -0.937465        -1.734120         0.252149
