19
Iteration:  3136
 O        -3.823091        -1.493589         0.958530
 C        -2.809612        -0.630361         1.183373
 C        -2.052467        -0.536563         2.454301
 C        -1.344573         0.749310         1.824727
 C        -2.711606         1.006737         1.166657
 C        -2.020700         1.459247        -0.141245
 C        -0.914179         0.460683         0.271517
 O         0.447633         0.702987        -0.074740
 C        -1.557709        -0.927389         0.184475
 H        -4.395881        -1.603012         1.768928
 H        -2.604691        -0.012143         3.255290
 H        -1.486600        -1.387539         2.812271
 H        -0.812082         1.351033         2.535848
 H        -3.500987         1.475523         1.663502
 H        -2.681894         1.304460        -1.039162
 H        -1.853364         2.578169         0.011959
 H         0.386698         1.520994        -0.639768
 H        -1.816630        -1.242193        -0.782459
 H        -1.040522        -1.802464         0.609423
