19
Iteration:  2195charge 0 multiplicity 1
 O        -3.906178        -1.477054         1.202090
 C        -2.722041        -0.610064         1.148410
 C        -1.962477        -0.508719         2.476526
 C        -1.559442         0.867345         1.930637
 C        -2.854185         0.910014         1.009156
 C        -1.962202         1.430241        -0.155755
 C        -0.809087         0.513192         0.379127
 O         0.438937         0.762409        -0.205185
 C        -1.504361        -0.983137         0.182608
 H        -4.331044        -1.532228         0.337343
 H        -2.665776        -0.388703         3.330180
 H        -1.133682        -1.240921         2.602196
 H        -1.135557         1.697947         2.371649
 H        -3.786182         1.324344         1.173111
 H        -2.120282         1.313825        -1.224647
 H        -1.793883         2.528128        -0.077943
 H         0.848626        -0.143388        -0.172004
 H        -1.774670        -1.216847        -0.890519
 H        -0.898111        -1.808385         0.630334
