19
Iteration:  4707
 O        -3.856397        -1.336102         0.990759
 C        -2.632606        -0.675372         1.111881
 C        -1.942204        -0.523073         2.505179
 C        -1.499623         0.876739         1.919979
 C        -2.791406         0.998628         1.088669
 C        -2.012261         1.418301        -0.104991
 C        -0.900225         0.452113         0.422043
 O         0.393908         0.580077        -0.053463
 C        -1.540354        -0.966615         0.169245
 H        -3.913417        -1.415171        -0.007110
 H        -2.656158        -0.375279         3.365873
 H        -1.253854        -1.314497         2.796683
 H        -1.083042         1.646003         2.515774
 H        -3.713212         1.413540         1.603854
 H        -2.362143         1.313348        -1.175727
 H        -1.892662         2.598281        -0.062291
 H         0.305549         0.564389        -1.059274
 H        -2.047255        -0.884606        -0.864808
 H        -0.906545        -1.900790         0.229228
