19
Iteration:  2674charge 0 multiplicity 1
 O        -3.852647        -1.352473         0.789707
 C        -2.661906        -0.663072         1.208778
 C        -1.900511        -0.565463         2.637584
 C        -1.331655         0.728518         1.902425
 C        -2.694634         1.015788         1.220028
 C        -2.181244         1.488555        -0.123440
 C        -0.924627         0.458119         0.375650
 O         0.362171         0.604013        -0.135166
 C        -1.617104        -0.885316         0.154895
 H        -3.692557        -2.237529         0.520026
 H        -2.507625        -0.293685         3.502445
 H        -1.142621        -1.323593         2.857756
 H        -0.808556         1.544618         2.486760
 H        -3.685426         1.467820         1.567380
 H        -2.695292         1.102858        -0.996334
 H        -1.970652         2.553645        -0.273073
 H         0.406550         1.501719        -0.482605
 H        -2.132096        -1.024685        -0.791824
 H        -0.933623        -1.723249         0.295132
