19
Iteration:  2120charge 0 multiplicity 1
 O        -3.858327        -1.472562         0.933030
 C        -2.742196        -0.678395         1.167065
 C        -1.889080        -0.426802         2.546916
 C        -1.360636         0.879958         1.839746
 C        -2.767440         0.952209         1.096159
 C        -2.011828         1.369815        -0.254329
 C        -0.959220         0.505005         0.367988
 O         0.336276         0.666854        -0.096965
 C        -1.634314        -0.904759         0.214455
 H        -3.960704        -2.006057         1.773766
 H        -2.457009        -0.268693         3.487684
 H        -1.306434        -1.354228         2.701138
 H        -0.884864         1.656844         2.392540
 H        -3.583676         1.522446         1.452297
 H        -2.270501         1.043516        -1.239034
 H        -1.723804         2.434392        -0.316892
 H         0.865295         0.692270         0.693911
 H        -1.872947        -1.073532        -0.864006
 H        -0.834097        -1.599069         0.464497
