19
Iteration:  4399
 O        -4.003250        -1.436251         0.968039
 C        -2.799261        -0.690051         1.160457
 C        -1.991690        -0.529413         2.487954
 C        -1.343513         0.750042         1.804738
 C        -2.726607         1.038973         1.118372
 C        -2.074736         1.427812        -0.131410
 C        -0.874848         0.487176         0.391726
 O         0.433246         0.729107        -0.080312
 C        -1.479050        -0.893200         0.209697
 H        -3.956600        -1.807902         0.027250
 H        -2.521883        -0.027731         3.354327
 H        -1.430118        -1.380544         2.869453
 H        -0.694108         1.446395         2.420089
 H        -3.444736         1.720514         1.626201
 H        -2.534578         1.133077        -1.036543
 H        -1.888418         2.507477        -0.281893
 H         1.041472        -0.049334         0.166466
 H        -1.839738        -1.100807        -0.835314
 H        -0.892669        -1.698342         0.658728
