19
Iteration:  1736charge 0 multiplicity 1
 O        -3.798688        -1.526973         1.289698
 C        -2.749718        -0.676015         1.132619
 C        -1.820828        -0.579982         2.318143
 C        -1.472618         0.856268         1.781861
 C        -2.806466         0.956126         0.995810
 C        -2.068787         1.565469        -0.211803
 C        -0.928464         0.554529         0.298840
 O         0.428695         0.447568         0.156043
 C        -1.719699        -0.718535         0.029546
 H        -3.565676        -2.381942         0.944857
 H        -2.210041        -0.629855         3.330739
 H        -0.907574        -1.214999         2.318634
 H        -1.038351         1.758828         2.381682
 H        -3.774247         1.556998         1.269504
 H        -2.334421         1.377858        -1.274784
 H        -1.829877         2.653789         0.017055
 H         0.896774         1.310614         0.315127
 H        -2.246569        -0.565608        -0.922641
 H        -1.026973        -1.581325         0.030807
