19
Iteration:   729
 O        -3.558226        -1.731297         1.113948
 C        -2.729021        -0.604907         1.135360
 C        -1.892453        -0.392016         2.410214
 C        -1.537260         0.938451         1.907743
 C        -2.817684         1.046882         1.129023
 C        -2.043550         1.614623        -0.053239
 C        -0.984752         0.530624         0.254768
 O         0.439183         0.391945         0.018641
 C        -1.738019        -0.774905        -0.041622
 H        -4.518325        -1.681360         1.108061
 H        -2.535858        -0.254217         3.343407
 H        -1.345916        -1.300253         2.750751
 H        -1.092712         1.961696         2.297033
 H        -3.670093         1.542842         1.462780
 H        -2.503178         1.786336        -1.044914
 H        -1.620151         2.520926         0.260257
 H         0.635118        -0.501704        -0.374785
 H        -2.130357        -0.728491        -1.090723
 H        -1.139787        -1.712287        -0.063525
