19
Iteration:   549charge 0 multiplicity 1
 O        -3.729378        -1.564334         1.251418
 C        -2.750437        -0.583690         1.059388
 C        -1.743239        -0.620003         2.341414
 C        -1.448423         0.727859         1.797293
 C        -2.904920         1.015237         1.051122
 C        -2.042653         1.671117        -0.178117
 C        -0.989030         0.514033         0.337362
 O         0.400575         0.578751         0.210236
 C        -1.762436        -0.773172        -0.115212
 H        -3.513536        -2.242016         1.933367
 H        -2.213498        -0.560166         3.346940
 H        -0.893791        -1.333468         2.422051
 H        -0.841380         1.523465         2.312618
 H        -3.676672         1.708510         1.661424
 H        -2.397059         1.470500        -1.160329
 H        -1.810383         2.754404        -0.052866
 H         0.807634        -0.021913        -0.406112
 H        -2.114692        -0.735409        -1.163711
 H        -1.148971        -1.691646        -0.118136
