19
Iteration:   767charge 0 multiplicity 1
 O        -3.898925        -1.467268         0.999413
 C        -2.748834        -0.636737         1.218791
 C        -1.844557        -0.599458         2.490595
 C        -1.414759         0.806468         1.855942
 C        -2.759315         0.922401         1.094426
 C        -2.031886         1.438939        -0.196296
 C        -0.912098         0.485516         0.305384
 O         0.386118         0.774382        -0.091426
 C        -1.582441        -0.864561         0.131525
 H        -4.414382        -1.508832         1.867564
 H        -2.483682        -0.381668         3.322011
 H        -1.143538        -1.414327         2.629500
 H        -1.016569         1.533246         2.475013
 H        -3.665309         1.504389         1.458648
 H        -2.518749         1.210342        -1.158656
 H        -1.846750         2.558643        -0.060532
 H         0.991679         0.080415         0.247748
 H        -2.027933        -0.945594        -0.863474
 H        -0.894187        -1.658149         0.411532
