19
Iteration:  2040charge 0 multiplicity 1
 O        -3.889581        -1.384568         0.992230
 C        -2.732349        -0.595244         1.185401
 C        -1.815895        -0.457969         2.487040
 C        -1.422679         0.889797         1.812055
 C        -2.780872         0.964866         1.104805
 C        -2.124336         1.324803        -0.282548
 C        -0.892380         0.396476         0.283203
 O         0.429006         0.738202         0.026557
 C        -1.679077        -0.948610         0.211112
 H        -3.396393        -2.230804         0.775663
 H        -2.432057        -0.356680         3.427665
 H        -0.954415        -1.219131         2.626528
 H        -0.821653         1.643096         2.370548
 H        -3.729751         1.424827         1.521536
 H        -2.629305         0.800293        -1.122327
 H        -1.852658         2.384184        -0.294741
 H         1.051220         0.407727         0.682320
 H        -2.161082        -1.007474        -0.835002
 H        -1.090930        -1.862808         0.601638
