19
Iteration:  4612
 O        -3.992972        -1.438923         1.059080
 C        -2.744475        -0.688508         1.097836
 C        -1.841469        -0.536002         2.476637
 C        -1.479630         0.836455         1.906091
 C        -2.768610         0.964528         1.093195
 C        -2.022483         1.509171        -0.193095
 C        -0.896440         0.510450         0.325703
 O         0.452005         0.559629         0.058976
 C        -1.548870        -0.829976         0.154753
 H        -4.375307        -1.625083         0.154945
 H        -2.394153        -0.521293         3.432230
 H        -1.008166        -1.287548         2.676827
 H        -0.946575         1.682487         2.349494
 H        -3.567491         1.549631         1.495628
 H        -2.281836         1.336329        -1.231216
 H        -1.904010         2.544421        -0.141555
 H         0.436895         0.336407        -0.929677
 H        -1.723809        -1.156247        -0.856703
 H        -0.711601        -1.466367         0.512521
