19
Iteration:   905
 O        -3.785409        -1.709866         1.385156
 C        -2.739971        -0.606579         1.105884
 C        -1.902488        -0.520216         2.380029
 C        -1.438139         0.716102         1.741336
 C        -2.824490         1.075316         1.102020
 C        -1.972542         1.635997        -0.152451
 C        -0.955053         0.528344         0.287936
 O         0.454537         0.657739         0.110843
 C        -1.684015        -0.813324        -0.126659
 H        -4.272504        -1.942947         0.614584
 H        -2.806722        -0.259826         2.968377
 H        -1.221004        -1.319053         2.683104
 H        -0.900675         1.524604         2.372307
 H        -3.569573         1.712746         1.616825
 H        -2.241304         1.418857        -1.186548
 H        -1.598128         2.599535         0.001940
 H         0.795210        -0.105824        -0.417358
 H        -2.229064        -0.710270        -1.070009
 H        -1.208569        -1.754995         0.112462
