19
Iteration:  2010
 O        -3.942874        -1.211620         0.928231
 C        -2.628049        -0.715640         1.173975
 C        -2.022689        -0.504428         2.678403
 C        -1.461618         0.806392         1.898489
 C        -2.764559         0.837342         1.124552
 C        -2.051738         1.342037        -0.223344
 C        -0.918393         0.502810         0.291776
 O         0.286207         0.724862        -0.262094
 C        -1.368329        -0.913831         0.362372
 H        -3.760370        -2.016792         0.479621
 H        -2.808938        -0.146547         3.342487
 H        -1.319343        -1.214475         3.122492
 H        -0.977825         1.648382         2.399319
 H        -3.648920         1.161876         1.620670
 H        -2.352356         1.002116        -1.214747
 H        -1.815251         2.428019        -0.308164
 H         0.975106         0.013449        -0.261545
 H        -1.387750        -1.303847        -0.702632
 H        -0.575815        -1.507616         0.854595
