19
Iteration:  2981
 O        -3.878144        -1.338203         0.865357
 C        -2.731270        -0.616264         1.215270
 C        -1.880304        -0.616893         2.565513
 C        -1.351667         0.760456         1.824132
 C        -2.692652         0.997047         1.215388
 C        -2.185398         1.388539        -0.168399
 C        -0.966809         0.461483         0.263246
 O         0.369412         0.671804        -0.022918
 C        -1.497561        -0.937418         0.249890
 H        -3.970095        -1.634886        -0.058011
 H        -2.438679        -0.304270         3.454750
 H        -1.231684        -1.493628         2.779817
 H        -0.732994         1.614306         2.161548
 H        -3.580004         1.521350         1.611345
 H        -2.790572         1.060468        -1.050917
 H        -1.904148         2.490389        -0.298011
 H         0.420382         1.594207        -0.305466
 H        -1.900763        -1.245161        -0.698196
 H        -0.815273        -1.667044         0.619084
