19
Iteration:  2998
 O        -3.845291        -1.291170         0.904904
 C        -2.655024        -0.625544         1.158310
 C        -1.890796        -0.547631         2.497459
 C        -1.396814         0.755695         1.918873
 C        -2.831445         0.922806         1.135936
 C        -2.174415         1.418874        -0.105666
 C        -0.974542         0.589101         0.397256
 O         0.342349         0.508494        -0.160023
 C        -1.443580        -0.880932         0.275996
 H        -3.647299        -1.606332        -0.018359
 H        -2.602449        -0.402158         3.337609
 H        -1.197235        -1.385933         2.642256
 H        -0.919403         1.413739         2.664402
 H        -3.775381         1.194676         1.753883
 H        -2.570298         1.288026        -1.121125
 H        -1.982833         2.497497        -0.056387
 H         0.550177         1.208467        -0.801517
 H        -1.508293        -1.268948        -0.812800
 H        -0.656390        -1.486214         0.828563
