19
Iteration:  3685
 O        -3.859034        -1.543358         0.968357
 C        -2.773926        -0.626524         1.152372
 C        -1.887844        -0.534400         2.463016
 C        -1.380779         0.796507         1.842845
 C        -2.761837         1.080582         1.099758
 C        -1.960954         1.464511        -0.242228
 C        -0.982436         0.473941         0.400093
 O         0.407412         0.666291         0.068853
 C        -1.654878        -0.807477         0.063923
 H        -3.955541        -1.967692         1.872655
 H        -2.367540        -0.271444         3.400861
 H        -1.245342        -1.445552         2.539949
 H        -0.859578         1.465568         2.483651
 H        -3.522339         1.751363         1.501450
 H        -2.477562         1.329550        -1.216852
 H        -1.688677         2.499228        -0.199092
 H         0.723899        -0.267795        -0.092618
 H        -2.093444        -0.924886        -0.975219
 H        -1.208473        -1.776450         0.400276
