19
Iteration:  2137
 O        -3.838415        -1.457412         0.796634
 C        -2.709871        -0.554463         1.269888
 C        -1.897064        -0.441978         2.549721
 C        -1.374079         0.749483         1.806243
 C        -2.714516         1.044785         1.142523
 C        -2.155454         1.273336        -0.223897
 C        -0.913292         0.403284         0.325244
 O         0.349460         0.797972        -0.106554
 C        -1.540763        -0.976449         0.265172
 H        -4.542147        -1.586577         1.491915
 H        -2.464318        -0.074649         3.440915
 H        -1.220357        -1.143354         3.070121
 H        -0.815639         1.642194         2.192829
 H        -3.519365         1.633646         1.666673
 H        -2.828403         0.829973        -1.013147
 H        -1.815172         2.314849        -0.392199
 H         1.010456         0.635515         0.558554
 H        -1.943310        -1.232645        -0.717521
 H        -1.126931        -1.921117         0.695465
