19
Iteration:   613
 O        -3.810186        -1.389801         0.913941
 C        -2.702042        -0.626554         1.218233
 C        -1.946919        -0.563404         2.483624
 C        -1.359452         0.795524         1.850598
 C        -2.744410         0.885940         1.244935
 C        -2.126140         1.419514        -0.082141
 C        -0.954009         0.404642         0.268297
 O         0.369582         0.817986        -0.149101
 C        -1.501034        -0.970364         0.219754
 H        -4.549483        -0.817355         0.970804
 H        -2.620322        -0.485829         3.405117
 H        -1.307126        -1.468414         2.643805
 H        -0.743956         1.608641         2.335533
 H        -3.552480         1.382273         1.934116
 H        -2.570998         1.109479        -1.080656
 H        -1.938847         2.510975        -0.039771
 H         0.459193         0.718703        -1.109803
 H        -2.010278        -1.287771        -0.806625
 H        -0.853213        -1.744219         0.739259
