19
Iteration:  2518charge 0 multiplicity 1
 O        -3.835214        -1.565815         1.113469
 C        -2.740123        -0.601947         1.154724
 C        -2.084019        -0.576545         2.550648
 C        -1.335754         0.693632         1.969037
 C        -2.783147         1.075478         1.105463
 C        -2.005686         1.452774        -0.147406
 C        -0.878691         0.517364         0.294111
 O         0.453928         0.670288        -0.209379
 C        -1.610426        -0.847147         0.135602
 H        -4.069991        -1.763608         0.162313
 H        -2.786522        -0.190724         3.331930
 H        -1.607815        -1.476725         2.960729
 H        -0.789865         1.354347         2.589456
 H        -3.550347         1.598074         1.562722
 H        -2.376509         1.326911        -1.150653
 H        -1.723979         2.487696        -0.152749
 H         0.573521         1.610295        -0.346525
 H        -2.027103        -0.899880        -0.881968
 H        -1.033086        -1.770312         0.387770
