19
Iteration:   449
 O        -3.808008        -1.444371         0.909520
 C        -2.693834        -0.622604         1.266762
 C        -1.987420        -0.592805         2.570395
 C        -1.361694         0.733281         1.910390
 C        -2.741840         0.920440         1.246588
 C        -2.087229         1.474259        -0.022975
 C        -0.961820         0.530566         0.244255
 O         0.318286         0.650288        -0.374063
 C        -1.507950        -0.897200         0.236684
 H        -3.791749        -1.258421        -0.090618
 H        -2.746876        -0.306200         3.357884
 H        -1.424545        -1.480242         2.899332
 H        -0.934676         1.470297         2.654372
 H        -3.544681         1.573602         1.716908
 H        -2.550894         1.323682        -1.018800
 H        -1.812294         2.492314         0.174404
 H         0.706358         1.444822         0.048880
 H        -1.935630        -1.031758        -0.755890
 H        -0.780135        -1.564265         0.681695
