19
Iteration:  3070
 O        -3.870191        -1.566371         1.225974
 C        -2.724591        -0.619536         1.081252
 C        -1.866462        -0.540650         2.397840
 C        -1.432130         0.774899         1.782698
 C        -2.778434         1.038343         1.153051
 C        -2.127229         1.527890        -0.195612
 C        -0.957475         0.529184         0.244088
 O         0.457310         0.566356         0.099273
 C        -1.566126        -0.837698        -0.005355
 H        -4.280898        -1.666773         0.366178
 H        -2.367649        -0.246603         3.324302
 H        -1.064088        -1.244248         2.594185
 H        -0.817474         1.465047         2.324698
 H        -3.667295         1.465066         1.472231
 H        -2.624443         1.385948        -1.192940
 H        -1.812577         2.617181        -0.139744
 H         0.850981         0.954203         0.883946
 H        -1.989034        -1.009643        -0.952901
 H        -0.943712        -1.678077         0.297802
