19
Iteration:  4923
 O        -4.007110        -1.416232         0.864166
 C        -2.784454        -0.643682         1.136805
 C        -1.890666        -0.517964         2.607046
 C        -1.327322         0.741772         1.864124
 C        -2.705618         0.921844         1.124665
 C        -2.100077         1.413825        -0.119751
 C        -0.909808         0.529647         0.354288
 O         0.491239         0.694290        -0.080102
 C        -1.629407        -0.856726         0.095298
 H        -3.947911        -2.150073         1.475547
 H        -2.568509        -0.184235         3.460656
 H        -1.086898        -1.221968         2.826656
 H        -0.847823         1.572017         2.310146
 H        -3.613550         1.514582         1.510091
 H        -2.444980         1.050842        -1.037708
 H        -1.809776         2.450321        -0.256831
 H         0.905850         0.375621         0.751493
 H        -2.039990        -0.758279        -0.938920
 H        -0.880147        -1.639900         0.263585
