19
Iteration:  4528
 O        -3.863894        -1.387941         1.170971
 C        -2.747417        -0.655553         1.166156
 C        -1.907361        -0.591062         2.428092
 C        -1.437352         0.784656         1.779591
 C        -2.891661         0.902148         1.049454
 C        -2.024050         1.514933        -0.197113
 C        -0.858976         0.575777         0.239110
 O         0.506230         0.540259         0.137411
 C        -1.620920        -0.833332         0.124247
 H        -4.193029        -1.117185         0.318272
 H        -2.591756        -0.395925         3.230745
 H        -1.187608        -1.440573         2.604125
 H        -1.102003         1.629179         2.467895
 H        -3.821829         1.273530         1.398709
 H        -2.343280         1.310834        -1.280905
 H        -1.999525         2.566394         0.157652
 H         0.974260         0.586834        -0.690611
 H        -1.926785        -1.042961        -0.951064
 H        -0.980612        -1.662342         0.422769
