19
Iteration:  1828charge 0 multiplicity 1
 O        -3.655956        -1.391187         0.642738
 C        -2.693255        -0.604472         1.204972
 C        -1.940962        -0.506687         2.613253
 C        -1.409195         0.815388         2.013757
 C        -2.777310         1.015827         1.293100
 C        -2.105608         1.444595        -0.039339
 C        -0.965978         0.461133         0.372491
 O         0.257366         0.500566        -0.381818
 C        -1.487906        -0.889750         0.316048
 H        -4.452778        -1.525312         1.271365
 H        -2.702191        -0.355178         3.393437
 H        -1.300674        -1.349103         2.841795
 H        -1.069322         1.623547         2.628554
 H        -3.746230         1.317939         1.595140
 H        -2.497165         1.132562        -0.997287
 H        -1.773228         2.472103        -0.029187
 H         0.460588         1.412922        -0.612307
 H        -1.774096        -1.124373        -0.695530
 H        -0.948697        -1.674104         0.790820
