19
Iteration:  4961
 O        -3.851234        -1.453682         1.067734
 C        -2.691541        -0.587040         1.009302
 C        -1.925977        -0.555966         2.415370
 C        -1.471223         0.704934         1.886246
 C        -2.855856         1.016732         1.042319
 C        -1.930028         1.540466        -0.068466
 C        -0.943127         0.467271         0.333305
 O         0.402309         0.550619         0.004969
 C        -1.591989        -0.853033         0.059993
 H        -3.966289        -1.455701         2.034898
 H        -2.501817        -0.624653         3.353674
 H        -1.131563        -1.383277         2.461989
 H        -0.902904         1.647778         2.292025
 H        -3.791486         1.415414         1.362814
 H        -2.551498         1.502421        -1.095861
 H        -1.539207         2.516001         0.336863
 H         0.699186         1.414037         0.274737
 H        -1.871444        -1.043424        -0.972223
 H        -1.095937        -1.828289         0.314735
