19
Iteration:  2718
 O        -3.938843        -1.332373         1.229526
 C        -2.654484        -0.683176         1.100745
 C        -1.872816        -0.686173         2.417940
 C        -1.577355         0.719389         1.936456
 C        -2.788075         0.916832         0.988805
 C        -2.007585         1.567813        -0.172724
 C        -0.951761         0.569740         0.264128
 O         0.451765         0.662076        -0.035930
 C        -1.531500        -0.877805         0.023855
 H        -3.837032        -2.180632         1.599446
 H        -2.641321        -0.857036         3.172016
 H        -1.003481        -1.366834         2.527038
 H        -0.808339         1.330600         2.585423
 H        -3.840319         1.325647         1.356504
 H        -2.520685         1.396644        -1.113011
 H        -1.695650         2.586741         0.051410
 H         0.833429         1.202428         0.669485
 H        -2.027825        -0.822262        -0.951113
 H        -0.817893        -1.686184        -0.036125
