19
Iteration:  2753charge 0 multiplicity 1
 O        -3.924093        -1.444363         1.133822
 C        -2.718490        -0.679089         1.097812
 C        -1.807018        -0.552385         2.370660
 C        -1.454905         0.792614         1.786519
 C        -2.827803         0.900034         1.057134
 C        -2.067771         1.547544        -0.091421
 C        -0.900443         0.552797         0.318545
 O         0.437975         0.609963         0.038127
 C        -1.644519        -0.865332         0.009514
 H        -3.707562        -2.214795         1.628990
 H        -2.448275        -0.526046         3.249590
 H        -0.956214        -1.227581         2.533738
 H        -0.841302         1.521634         2.423143
 H        -3.761278         1.379018         1.529078
 H        -2.426564         1.592300        -1.098230
 H        -1.692731         2.527693         0.225816
 H         0.988340         0.943774         0.750026
 H        -2.102365        -0.756086        -0.985420
 H        -0.981083        -1.726489         0.072393
