19
Iteration:  2000
 O        -3.909525        -1.249524         0.926982
 C        -2.644363        -0.652092         1.272643
 C        -2.076792        -0.482016         2.619947
 C        -1.499712         0.780753         2.027506
 C        -2.716277         0.844860         1.057940
 C        -2.034925         1.358302        -0.197083
 C        -0.886540         0.474340         0.299973
 O         0.341441         0.782790        -0.373302
 C        -1.346807        -0.970789         0.370644
 H        -3.976078        -2.161371         0.644391
 H        -2.918897        -0.246575         3.257150
 H        -1.638381        -1.311022         3.127346
 H        -1.141601         1.682688         2.507367
 H        -3.681423         1.204988         1.263315
 H        -2.495439         1.254276        -1.165067
 H        -1.873998         2.464411        -0.017791
 H         0.774332        -0.089132        -0.581272
 H        -1.583801        -1.471180        -0.597692
 H        -0.660965        -1.564615         0.947466
