19
Iteration:  2406charge 0 multiplicity 1
 O        -3.742509        -1.712656         1.331904
 C        -2.735008        -0.638142         1.102128
 C        -2.042509        -0.496805         2.361464
 C        -1.407612         0.815636         1.729527
 C        -2.757809         1.100995         1.064039
 C        -1.880897         1.597079        -0.144337
 C        -0.947581         0.478947         0.273559
 O         0.474888         0.619188         0.049763
 C        -1.822253        -0.897633        -0.012864
 H        -4.040873        -1.827325         0.390997
 H        -2.794220        -0.176381         3.120174
 H        -1.570932        -1.476837         2.728861
 H        -0.913549         1.678515         2.337107
 H        -3.670013         1.475882         1.644118
 H        -2.205238         1.710927        -1.211054
 H        -1.384407         2.563359         0.104534
 H         0.678873         1.192936         0.841125
 H        -2.243182        -0.866994        -1.078043
 H        -1.195610        -1.792926         0.210620
