19
Iteration:  1215charge 0 multiplicity 1
 O        -4.021733        -1.434587         1.358960
 C        -2.768437        -0.661044         1.051432
 C        -1.819872        -0.710803         2.229793
 C        -1.336643         0.668029         1.843365
 C        -2.789500         0.963519         1.098746
 C        -1.978897         1.540098        -0.183046
 C        -0.963315         0.544437         0.306319
 O         0.460098         0.798007         0.099388
 C        -1.684427        -0.894481        -0.151349
 H        -3.687526        -2.221889         1.779119
 H        -2.227419        -0.608826         3.275345
 H        -0.995107        -1.478998         2.230945
 H        -0.799475         1.359931         2.369826
 H        -3.548785         1.476233         1.641015
 H        -2.428198         1.449435        -1.216006
 H        -1.694047         2.652447        -0.013708
 H         0.630334         1.251706         0.967270
 H        -1.923678        -0.853279        -1.251884
 H        -1.008017        -1.716944         0.213433
