19
Iteration:  1105
 O        -3.891413        -1.446267         1.135770
 C        -2.638772        -0.724514         1.093803
 C        -1.967512        -0.598844         2.417023
 C        -1.425960         0.717010         1.925530
 C        -2.772641         0.917905         1.223022
 C        -2.003160         1.536624         0.006535
 C        -0.930345         0.540320         0.304918
 O         0.377996         0.684171        -0.210803
 C        -1.511070        -0.905030         0.038198
 H        -4.407474        -0.999337         0.425189
 H        -2.689052        -0.278318         3.188665
 H        -1.252593        -1.401746         2.725815
 H        -0.942521         1.454767         2.438050
 H        -3.701871         1.221122         1.745515
 H        -2.378833         1.316179        -0.994137
 H        -1.831416         2.625331         0.250337
 H         0.578762         1.616585        -0.287527
 H        -1.975392        -0.833609        -0.970254
 H        -0.938777        -1.820553         0.243321
