19
Iteration:   641
 O        -4.033873        -1.227603         0.933012
 C        -2.713383        -0.731214         1.205665
 C        -1.765595        -0.607505         2.567639
 C        -1.290893         0.710102         1.924588
 C        -2.684171         0.810405         1.134355
 C        -2.118049         1.259413        -0.249663
 C        -0.965705         0.447855         0.364588
 O         0.283041         0.950637        -0.069292
 C        -1.448154        -0.908585         0.214827
 H        -4.533727        -0.460484         0.694014
 H        -2.354123        -0.487337         3.460497
 H        -1.095476        -1.391845         2.883588
 H        -0.550225         1.391005         2.409216
 H        -3.502388         1.329346         1.511316
 H        -2.447054         0.659550        -1.118586
 H        -2.197528         2.302706        -0.446574
 H         0.294088         0.728181        -1.038222
 H        -1.737156        -1.145416        -0.761604
 H        -0.787021        -1.732134         0.320726
