19
Iteration:  3817
 O        -3.906394        -1.389788         0.909631
 C        -2.710512        -0.660742         1.128813
 C        -1.981851        -0.534532         2.565831
 C        -1.476856         0.825642         1.915754
 C        -2.782446         0.923638         1.116431
 C        -2.006935         1.457875        -0.134129
 C        -0.903361         0.444751         0.337755
 O         0.465198         0.694342        -0.128332
 C        -1.539635        -0.872994         0.157050
 H        -4.460313        -1.479256         1.733375
 H        -2.720915        -0.446645         3.394055
 H        -1.180197        -1.323350         2.828164
 H        -1.141488         1.657527         2.577034
 H        -3.632386         1.372728         1.655211
 H        -2.374828         1.195395        -1.181596
 H        -1.602240         2.458610        -0.007665
 H         0.912259        -0.181233        -0.366233
 H        -1.978313        -1.039402        -0.890172
 H        -0.694263        -1.565526         0.368153
