19
Iteration:   457charge 0 multiplicity 1
 O        -3.783387        -1.396915         0.892019
 C        -2.723458        -0.632160         1.228248
 C        -2.032485        -0.593759         2.592805
 C        -1.366226         0.684671         1.869439
 C        -2.763662         0.965920         1.290909
 C        -2.075138         1.433773         0.007723
 C        -0.905276         0.480170         0.278365
 O         0.316429         0.697761        -0.390512
 C        -1.517078        -0.872022         0.266209
 H        -3.734805        -1.498539        -0.111890
 H        -2.706272        -0.192913         3.394900
 H        -1.477160        -1.487652         2.968292
 H        -0.942580         1.527561         2.401565
 H        -3.371448         1.410612         1.956282
 H        -2.742263         1.304003        -0.900682
 H        -1.678391         2.427242        -0.046928
 H         0.516861         1.666268        -0.246218
 H        -1.701696        -1.372301        -0.771154
 H        -0.843755        -1.681839         0.590543
