19
Iteration:  4275
 O        -3.976933        -1.351354         0.963654
 C        -2.785280        -0.569219         1.128165
 C        -1.969473        -0.569497         2.536745
 C        -1.476972         0.741415         1.883373
 C        -2.813225         0.905160         1.112437
 C        -1.992522         1.491334        -0.126631
 C        -0.813598         0.447458         0.480928
 O         0.523012         0.645877        -0.182993
 C        -1.537706        -0.935253         0.205043
 H        -3.794372        -1.955102         0.172910
 H        -2.581322        -0.368962         3.424304
 H        -1.283071        -1.455060         2.696013
 H        -0.954974         1.504618         2.455872
 H        -3.657623         1.288473         1.683991
 H        -2.497434         1.418636        -1.162617
 H        -1.704150         2.491109         0.201188
 H         0.520807         1.570134        -0.620718
 H        -1.911998        -1.013400        -0.933997
 H        -0.959321        -1.811522         0.623973
