19
Iteration:   956charge 0 multiplicity 1
 O        -4.001681        -1.229979         0.931091
 C        -2.666995        -0.722013         1.168184
 C        -1.829533        -0.523497         2.552494
 C        -1.371799         0.751591         1.829765
 C        -2.743273         0.867633         1.266914
 C        -2.222008         1.310142        -0.086528
 C        -0.960534         0.482794         0.358419
 O         0.404274         0.689172        -0.140432
 C        -1.411247        -0.902307         0.168250
 H        -4.279675        -1.178816         0.029795
 H        -2.357708        -0.279921         3.486538
 H        -1.086644        -1.306113         2.786587
 H        -0.864991         1.654117         2.399742
 H        -3.643184         1.264622         1.617721
 H        -2.759982         0.992713        -1.050204
 H        -1.937688         2.388041        -0.193029
 H         0.381492         1.254865        -0.919927
 H        -1.558663        -1.233022        -0.854806
 H        -0.624089        -1.557520         0.633720
