19
Iteration:  3515
 O        -3.865933        -1.441800         1.088458
 C        -2.729743        -0.628924         1.206090
 C        -1.923355        -0.522093         2.513324
 C        -1.353722         0.703060         1.796914
 C        -2.728253         0.981560         1.068918
 C        -2.080746         1.449234        -0.341964
 C        -0.928970         0.480873         0.326993
 O         0.480371         0.778040         0.045081
 C        -1.639505        -0.978893         0.083025
 H        -4.594094        -1.134125         0.503238
 H        -2.608125        -0.305911         3.404581
 H        -1.275593        -1.272554         3.019983
 H        -0.859491         1.507637         2.478219
 H        -3.614974         1.547790         1.405354
 H        -2.617395         0.981885        -1.180797
 H        -1.849588         2.563981        -0.317472
 H         0.672842         0.370594         0.951747
 H        -2.125890        -1.084106        -0.861481
 H        -1.089657        -1.851734         0.289778
