19
Iteration:   233charge 0 multiplicity 1
 O        -3.805501        -1.529174         1.368083
 C        -2.691569        -0.669597         1.101591
 C        -1.744027        -0.581394         2.322470
 C        -1.416556         0.711618         1.775414
 C        -2.826095         0.971767         1.037013
 C        -1.997688         1.629590        -0.226636
 C        -1.000368         0.562339         0.299882
 O         0.426673         0.551977         0.215540
 C        -1.795504        -0.832844        -0.112182
 H        -4.073157        -1.901283         0.564047
 H        -2.283675        -0.636505         3.273530
 H        -0.867236        -1.174052         2.491679
 H        -0.962267         1.513870         2.452410
 H        -3.806707         1.435981         1.536523
 H        -2.427754         1.584321        -1.156631
 H        -2.038260         2.739888        -0.006518
 H         0.692420         1.469541         0.045990
 H        -2.193526        -0.740713        -1.104086
 H        -1.065875        -1.646476        -0.117423
