19
Iteration:  3759charge 0 multiplicity 1
 O        -3.952515        -1.399483         0.952631
 C        -2.780259        -0.591224         1.147571
 C        -1.896212        -0.601411         2.506213
 C        -1.315427         0.748141         1.862505
 C        -2.820016         0.970392         1.062335
 C        -2.041043         1.354038        -0.099408
 C        -0.919355         0.455790         0.364119
 O         0.440215         0.794895        -0.129042
 C        -1.545215        -0.952301         0.185835
 H        -4.733357        -0.873744         0.964353
 H        -2.509342        -0.415170         3.412593
 H        -1.121105        -1.385811         2.728131
 H        -1.007762         1.430995         2.575749
 H        -3.576067         1.561946         1.573133
 H        -2.407059         1.193179        -1.149174
 H        -1.663075         2.409838        -0.108698
 H         1.153858         0.550111         0.448237
 H        -1.939131        -1.077002        -0.801387
 H        -0.942774        -1.801937         0.491258
