19
Iteration:  2251
 O        -3.691722        -1.607716         1.169914
 C        -2.697150        -0.663929         1.157722
 C        -1.898686        -0.375484         2.448684
 C        -1.487484         0.895346         1.757544
 C        -2.841106         1.021091         1.074489
 C        -2.154217         1.560463        -0.260358
 C        -0.917704         0.513955         0.326797
 O         0.483880         0.425148         0.092888
 C        -1.728853        -0.808195         0.059072
 H        -3.737513        -1.893088         0.257063
 H        -2.462178        -0.271778         3.412747
 H        -1.016287        -1.082526         2.609192
 H        -1.031112         1.824276         2.101576
 H        -3.686671         1.535627         1.526902
 H        -2.520399         1.393514        -1.280549
 H        -1.614860         2.496096        -0.050788
 H         0.784096         0.347021         1.005137
 H        -2.372878        -0.931609        -0.880765
 H        -1.062918        -1.704741         0.005479
