19
Iteration:  4993
 O        -3.886416        -1.544925         0.984696
 C        -2.728755        -0.685265         1.144865
 C        -1.891673        -0.585591         2.505932
 C        -1.389146         0.689414         1.871975
 C        -2.835255         0.955904         1.081153
 C        -1.993068         1.553028        -0.163057
 C        -0.868343         0.615648         0.380349
 O         0.542005         0.564650         0.039837
 C        -1.731102        -0.763190         0.063959
 H        -4.570176        -0.986309         1.362005
 H        -2.515000        -0.356286         3.403555
 H        -1.175773        -1.459866         2.649283
 H        -0.933679         1.572603         2.461972
 H        -3.635869         1.461433         1.565811
 H        -2.481803         1.354157        -1.175536
 H        -1.988926         2.659792        -0.090444
 H         0.629164         0.994079        -0.849766
 H        -2.242436        -0.763792        -0.881464
 H        -1.068556        -1.644992         0.214945
