19
Iteration:  2516charge 0 multiplicity 1
 O        -3.834010        -1.567731         1.094715
 C        -2.747853        -0.590856         1.146818
 C        -2.095804        -0.567458         2.564339
 C        -1.310991         0.673882         1.984731
 C        -2.789607         1.068836         1.101251
 C        -2.018036         1.456934        -0.149198
 C        -0.887663         0.530746         0.316760
 O         0.456620         0.672913        -0.227640
 C        -1.587379        -0.859161         0.155340
 H        -4.073056        -1.737012         0.195225
 H        -2.761362        -0.155776         3.370893
 H        -1.651171        -1.542097         2.937747
 H        -0.704618         1.386750         2.551016
 H        -3.577387         1.613626         1.569664
 H        -2.452287         1.322007        -1.166540
 H        -1.664293         2.502962        -0.255818
 H         0.535824         1.622935        -0.342339
 H        -2.026039        -0.913360        -0.888612
 H        -1.085274        -1.827022         0.389842
