19
Iteration:  3912
 O        -3.958179        -1.326207         0.980302
 C        -2.689417        -0.662085         1.095348
 C        -1.888402        -0.627218         2.407002
 C        -1.455128         0.767835         1.917175
 C        -2.787410         0.986883         1.068666
 C        -2.001938         1.466944        -0.126501
 C        -0.930494         0.463958         0.387728
 O         0.411229         0.752578        -0.050015
 C        -1.538167        -1.006534         0.136276
 H        -4.559191        -1.251826         1.759731
 H        -2.432181        -0.703740         3.344578
 H        -1.056908        -1.317007         2.269332
 H        -1.039633         1.653492         2.332695
 H        -3.707691         1.461740         1.454425
 H        -2.560660         1.288142        -1.087462
 H        -1.673333         2.534449        -0.190732
 H         1.171702         0.454031         0.499902
 H        -1.762491        -1.355998        -0.865055
 H        -0.892025        -1.738068         0.632788
