19
Iteration:  4396
 O        -3.996274        -1.451863         0.985406
 C        -2.812931        -0.643184         1.140759
 C        -1.987217        -0.522403         2.491002
 C        -1.346300         0.749315         1.811408
 C        -2.740325         1.049063         1.122028
 C        -2.063421         1.429166        -0.119434
 C        -0.872944         0.506252         0.394111
 O         0.437614         0.717255        -0.075772
 C        -1.457659        -0.932176         0.179774
 H        -4.021503        -1.818872         0.108573
 H        -2.588488        -0.010480         3.216956
 H        -1.432006        -1.431117         2.815613
 H        -0.750357         1.495349         2.362083
 H        -3.409303         1.631835         1.688707
 H        -2.578820         1.144964        -1.090274
 H        -1.916884         2.488537        -0.217848
 H         1.047032         0.022252         0.248860
 H        -1.895374        -1.102444        -0.886418
 H        -0.901885        -1.773869         0.635563
