19
Iteration:  4795charge 0 multiplicity 1
 O        -3.939632        -1.473112         1.238712
 C        -2.678694        -0.625938         1.109000
 C        -1.889503        -0.527358         2.399049
 C        -1.507679         0.782802         1.806817
 C        -2.855294         0.920398         0.958792
 C        -2.052100         1.513723        -0.204152
 C        -0.857875         0.521531         0.340416
 O         0.629123         0.575007         0.159932
 C        -1.692290        -0.832416         0.051820
 H        -4.623771        -1.384290         0.524008
 H        -2.423163        -0.332654         3.349459
 H        -1.175772        -1.304187         2.574294
 H        -1.148767         1.586141         2.438070
 H        -3.712752         1.084276         1.578405
 H        -2.528573         1.488601        -1.214423
 H        -1.824830         2.603439         0.062706
 H         0.913425         0.551751        -0.795462
 H        -1.916760        -0.834451        -0.983581
 H        -0.935190        -1.607912         0.234160
