19
Iteration:  3616
 O        -3.917641        -1.310560         0.970921
 C        -2.770071        -0.615869         1.210226
 C        -1.955528        -0.599145         2.516305
 C        -1.424481         0.780081         1.878546
 C        -2.719877         1.019488         1.125101
 C        -2.025905         1.328252        -0.211372
 C        -0.876780         0.466860         0.299173
 O         0.429132         0.726521        -0.013495
 C        -1.618645        -0.996142         0.195256
 H        -3.643736        -2.102990         0.458733
 H        -2.468066        -0.269952         3.485861
 H        -1.225801        -1.427725         2.744936
 H        -0.910786         1.560606         2.484886
 H        -3.605721         1.521214         1.571125
 H        -2.418638         1.220491        -1.241064
 H        -1.637024         2.413807        -0.294330
 H         0.461305         1.322056        -0.756377
 H        -1.821791        -1.166143        -0.854127
 H        -0.974259        -1.806343         0.599992
