19
Iteration:   479charge 0 multiplicity 1
 O        -3.937117        -1.350180         0.889097
 C        -2.693835        -0.644749         1.187817
 C        -1.947402        -0.570381         2.531503
 C        -1.253894         0.702019         1.984572
 C        -2.664040         0.964220         1.226026
 C        -2.088809         1.419550        -0.066236
 C        -0.952497         0.488856         0.328722
 O         0.274965         0.796282        -0.259216
 C        -1.496261        -0.975564         0.245008
 H        -3.566157        -2.016069         0.307311
 H        -2.747603        -0.328296         3.281053
 H        -1.385172        -1.464518         2.885817
 H        -0.680801         1.264928         2.721799
 H        -3.471674         1.449551         1.589169
 H        -2.659948         1.118755        -1.006192
 H        -1.867118         2.472520        -0.067059
 H        -0.079493         1.370038        -0.943824
 H        -1.707351        -1.222290        -0.890634
 H        -0.832777        -1.863107         0.466891
