19
Iteration:  1504
 O        -3.954532        -1.225362         0.939709
 C        -2.663197        -0.632853         1.262550
 C        -1.889475        -0.521050         2.527382
 C        -1.365118         0.786612         1.811919
 C        -2.707228         0.883126         1.139473
 C        -2.212241         1.110376        -0.290382
 C        -0.936287         0.450684         0.352956
 O         0.313613         0.951539        -0.089374
 C        -1.389113        -1.063016         0.229997
 H        -4.593954        -0.530782         0.952931
 H        -2.391279        -0.330191         3.493295
 H        -1.086610        -1.204314         2.842341
 H        -0.800051         1.513542         2.257007
 H        -3.526184         1.369200         1.557399
 H        -2.625196         0.578273        -1.224899
 H        -2.028558         2.167234        -0.430060
 H         0.917448         0.409896         0.482885
 H        -1.760963        -1.386451        -0.741477
 H        -0.654257        -1.840811         0.463927
