19
Iteration:   808
 O        -4.062018        -1.116775         1.032076
 C        -2.648341        -0.705056         1.190965
 C        -1.986922        -0.644044         2.568608
 C        -1.307765         0.607261         1.875601
 C        -2.651376         0.878822         1.082275
 C        -2.083132         1.255889        -0.232654
 C        -0.893009         0.441010         0.267366
 O         0.238203         1.009072        -0.150741
 C        -1.375911        -0.970463         0.201176
 H        -4.032492        -2.072039         0.951897
 H        -2.793882        -0.270027         3.289898
 H        -1.265736        -1.428144         2.947954
 H        -0.789062         1.423605         2.437487
 H        -3.505415         1.338038         1.600148
 H        -2.581076         0.969038        -1.189424
 H        -1.743340         2.300211        -0.196012
 H         1.020393         0.680061         0.354529
 H        -1.796542        -1.331834        -0.797702
 H        -0.735571        -1.707303         0.722428
