19
Iteration:  4575charge 0 multiplicity 1
 O        -3.805231        -1.371491         1.008115
 C        -2.702388        -0.628239         1.119484
 C        -2.070265        -0.528342         2.590147
 C        -1.380664         0.728702         1.932507
 C        -2.612632         1.008859         1.097718
 C        -2.005562         1.417386        -0.170169
 C        -0.952955         0.388064         0.374027
 O         0.356062         0.758605        -0.035184
 C        -1.632073        -0.954194         0.098319
 H        -3.977696        -1.637619         0.057592
 H        -2.884877        -0.121767         3.205638
 H        -1.612682        -1.392908         2.947220
 H        -0.811318         1.538262         2.387017
 H        -3.472754         1.677235         1.488176
 H        -2.458060         1.118079        -1.093413
 H        -1.452351         2.402325        -0.058076
 H         0.513244         0.617507        -1.029057
 H        -2.205391        -1.342931        -0.812348
 H        -0.921150        -1.715685         0.517585
