19
Iteration:   116charge 0 multiplicity 1
 O        -3.987360        -1.142796         0.982334
 C        -2.707609        -0.617324         1.182921
 C        -1.833807        -0.576616         2.558861
 C        -1.301712         0.643174         1.818466
 C        -2.761788         0.902669         1.139140
 C        -2.143719         1.230318        -0.240148
 C        -0.930329         0.434259         0.314132
 O         0.343696         0.951067         0.007175
 C        -1.479360        -0.997569         0.155509
 H        -4.011280        -2.063332         1.230333
 H        -2.464264        -0.380955         3.474958
 H        -1.118761        -1.381783         2.903104
 H        -0.790265         1.373792         2.520006
 H        -3.676137         1.231785         1.620546
 H        -2.642111         0.745004        -1.167302
 H        -1.870882         2.216829        -0.643995
 H         0.432973         0.771514        -0.937530
 H        -1.701154        -1.413216        -0.862677
 H        -0.715811        -1.717120         0.558081
