19
Iteration:  4594
 O        -3.936986        -1.415060         1.016411
 C        -2.746995        -0.613667         1.202861
 C        -2.026968        -0.506377         2.475211
 C        -1.364990         0.724848         1.804930
 C        -2.809168         0.978551         1.118069
 C        -2.051247         1.450004        -0.130945
 C        -0.898181         0.516794         0.342168
 O         0.535829         0.658942        -0.052546
 C        -1.529177        -0.928017         0.209675
 H        -3.942355        -1.594696         0.028979
 H        -2.652884        -0.192917         3.327741
 H        -1.403339        -1.378412         2.874977
 H        -0.911456         1.511877         2.474267
 H        -3.689603         1.375258         1.627198
 H        -2.640755         1.223329        -1.088920
 H        -1.748383         2.537955         0.071332
 H         0.626290         0.490136        -1.046737
 H        -1.803649        -0.998453        -0.864271
 H        -1.042666        -1.820902         0.588773
