19
Iteration:  3157charge 0 multiplicity 1
 O        -3.805775        -1.532300         0.875745
 C        -2.707821        -0.578904         1.152380
 C        -2.110905        -0.499287         2.636378
 C        -1.299933         0.657500         1.921974
 C        -2.724506         1.072024         1.124358
 C        -1.986313         1.426413        -0.156560
 C        -0.933487         0.507282         0.381785
 O         0.361931         0.668446        -0.155213
 C        -1.596087        -0.844924         0.162863
 H        -3.736819        -2.177611         1.625014
 H        -2.901041        -0.091040         3.270364
 H        -1.517203        -1.332163         3.018506
 H        -0.770778         1.461841         2.380215
 H        -3.452359         1.579569         1.640629
 H        -2.403710         1.210963        -1.185606
 H        -1.574887         2.521804        -0.086198
 H         0.217066         1.217164        -0.943343
 H        -2.117012        -1.139918        -0.711820
 H        -1.080876        -1.792986         0.450491
