19
Iteration:  4912
 O        -3.934726        -1.321441         0.850887
 C        -2.747010        -0.619398         1.189430
 C        -1.833466        -0.502959         2.543727
 C        -1.411116         0.778514         1.900622
 C        -2.811505         0.937764         1.138014
 C        -2.034371         1.367971        -0.147796
 C        -0.874784         0.446200         0.375218
 O         0.419627         0.728332        -0.083849
 C        -1.636573        -0.897802         0.079812
 H        -3.915031        -2.237367         1.241136
 H        -2.487193        -0.261266         3.451283
 H        -1.202494        -1.329938         2.901821
 H        -0.873294         1.453015         2.504945
 H        -3.713336         1.457041         1.628368
 H        -2.429571         1.150146        -1.113277
 H        -1.910975         2.447532         0.010611
 H         1.143477         0.185997         0.394439
 H        -1.869342        -1.161073        -0.980823
 H        -1.070678        -1.805628         0.399247
