19
Iteration:   679charge 0 multiplicity 1
 O        -3.854380        -1.538020         1.157855
 C        -2.698992        -0.624728         1.136799
 C        -1.873232        -0.498021         2.424895
 C        -1.391491         0.753108         1.817504
 C        -2.809348         0.973323         1.093858
 C        -2.136824         1.507118        -0.155165
 C        -0.909940         0.455872         0.281000
 O         0.447969         0.740575         0.055096
 C        -1.574138        -0.960518         0.081126
 H        -4.692875        -0.997343         0.995308
 H        -2.627814        -0.445340         3.247338
 H        -1.107606        -1.299486         2.544133
 H        -0.696236         1.471309         2.223286
 H        -3.725184         1.379602         1.632415
 H        -2.568019         1.316947        -1.176408
 H        -1.875648         2.603773        -0.032466
 H         0.660966         0.791757        -0.903227
 H        -1.911858        -1.089186        -0.989608
 H        -0.971516        -1.732393         0.573474
