19
Iteration:  3671
 O        -3.887962        -1.370593         1.008358
 C        -2.716408        -0.614185         1.136813
 C        -1.950965        -0.581412         2.511597
 C        -1.465990         0.737766         1.885205
 C        -2.757736         1.019151         1.065913
 C        -2.068401         1.466778        -0.164707
 C        -0.885197         0.480702         0.288719
 O         0.433353         0.682720         0.043153
 C        -1.591836        -0.904556         0.100915
 H        -3.989040        -1.945122         1.743062
 H        -2.710903        -0.517980         3.357273
 H        -1.049802        -1.224356         2.741263
 H        -0.817662         1.496483         2.260415
 H        -3.731798         1.330706         1.433526
 H        -2.432648         1.179574        -1.188470
 H        -1.668112         2.572077        -0.239309
 H         0.882893         0.033580        -0.477527
 H        -1.874443        -0.923301        -0.932684
 H        -0.851965        -1.718537         0.258140
