19
Iteration:  4611charge 0 multiplicity 1
 O        -3.996451        -1.438403         1.055652
 C        -2.750625        -0.696406         1.102234
 C        -1.842680        -0.539520         2.475118
 C        -1.473384         0.838038         1.902691
 C        -2.770363         0.966104         1.094721
 C        -2.031382         1.502264        -0.181554
 C        -0.898034         0.511305         0.330134
 O         0.465980         0.564222         0.051485
 C        -1.548044        -0.829498         0.158196
 H        -4.361717        -1.629332         0.134440
 H        -2.401726        -0.467121         3.430350
 H        -1.058580        -1.283903         2.686675
 H        -0.943249         1.662304         2.341760
 H        -3.581369         1.597468         1.477729
 H        -2.272648         1.350636        -1.208470
 H        -1.890947         2.550914        -0.166278
 H         0.423244         0.339345        -0.947803
 H        -1.735263        -1.198153        -0.863527
 H        -0.671039        -1.445792         0.507624
