19
Iteration:  4888
 O        -3.930049        -1.250561         1.014243
 C        -2.693978        -0.636344         1.133943
 C        -1.979318        -0.611043         2.499357
 C        -1.441062         0.762481         1.877479
 C        -2.693248         0.944849         1.008832
 C        -2.026006         1.469543        -0.126266
 C        -0.949426         0.493221         0.384154
 O         0.316126         0.739509        -0.071907
 C        -1.490979        -0.967548         0.206100
 H        -3.751966        -2.108068         0.635875
 H        -2.657448        -0.633415         3.358875
 H        -1.287901        -1.426518         2.790851
 H        -0.880129         1.514919         2.438166
 H        -3.683680         1.297823         1.481807
 H        -2.322097         1.252688        -1.165959
 H        -1.598085         2.467686         0.012339
 H         0.683454        -0.095530        -0.381367
 H        -1.544872        -1.393597        -0.885550
 H        -0.608450        -1.623105         0.507269
