19
Iteration:  3559charge 0 multiplicity 1
 O        -3.770556        -1.532243         1.208887
 C        -2.746900        -0.641087         1.059236
 C        -1.977668        -0.507929         2.445586
 C        -1.543719         0.845455         1.857386
 C        -2.849126         0.944611         0.927317
 C        -1.989403         1.608494        -0.131793
 C        -0.874188         0.533088         0.355306
 O         0.424037         0.467392        -0.075952
 C        -1.589457        -0.860576         0.130563
 H        -4.442125        -1.103822         0.613424
 H        -2.447019        -0.300241         3.467909
 H        -1.273965        -1.367133         2.658294
 H        -1.026043         1.701681         2.496037
 H        -3.802123         1.254436         1.396369
 H        -2.276939         1.622895        -1.218047
 H        -1.593674         2.573810         0.355846
 H         1.183586         0.802865         0.490946
 H        -1.752853        -1.078881        -0.916278
 H        -0.932161        -1.625645         0.473795
