19
Iteration:  3287
 O        -3.773320        -1.417538         1.008127
 C        -2.669473        -0.621216         1.083135
 C        -2.013933        -0.521303         2.449282
 C        -1.480334         0.832480         1.839193
 C        -2.844481         0.928921         1.149938
 C        -2.093495         1.554162        -0.014495
 C        -0.840904         0.534575         0.375236
 O         0.353332         0.516922        -0.180729
 C        -1.467283        -0.861692         0.294638
 H        -4.046618        -1.555610         0.041022
 H        -2.766356        -0.375955         3.247736
 H        -1.319173        -1.278766         2.876403
 H        -1.117031         1.687184         2.407274
 H        -3.721852         1.231756         1.599666
 H        -2.468960         1.438697        -1.005591
 H        -1.775535         2.604657         0.103032
 H         0.648101        -0.311116        -0.656587
 H        -1.733683        -0.903885        -0.832435
 H        -0.809240        -1.756808         0.532520
