19
Iteration:  3584charge 0 multiplicity 1
 O        -3.846051        -1.503901         1.074955
 C        -2.747237        -0.688723         1.137184
 C        -1.967563        -0.458034         2.530561
 C        -1.423196         0.800798         1.853941
 C        -2.766012         1.024978         1.153174
 C        -2.022907         1.484865        -0.207712
 C        -0.933637         0.522014         0.297762
 O         0.411904         0.485179        -0.024706
 C        -1.583443        -0.841399         0.089120
 H        -3.921029        -1.556297         0.121421
 H        -2.615154        -0.158359         3.391920
 H        -1.320266        -1.249814         2.973536
 H        -1.036054         1.642892         2.412103
 H        -3.696876         1.496358         1.549557
 H        -2.391775         1.243184        -1.188878
 H        -1.740020         2.519594        -0.032522
 H         0.875990         1.335734         0.064725
 H        -1.764419        -0.926788        -0.991544
 H        -0.869753        -1.674585         0.323004
