19
Iteration:  1535charge 0 multiplicity 1
 O        -3.785112        -1.607190         1.087124
 C        -2.741531        -0.631498         1.207178
 C        -1.975686        -0.447189         2.510771
 C        -1.440115         0.822401         1.845976
 C        -2.768230         0.990697         1.035683
 C        -2.007110         1.440106        -0.199829
 C        -0.961001         0.529456         0.333292
 O         0.379369         0.717548        -0.168555
 C        -1.558974        -0.929950         0.180151
 H        -4.702767        -1.278204         1.319986
 H        -2.635466        -0.146488         3.338363
 H        -1.207848        -1.160471         2.777897
 H        -0.921949         1.603342         2.363759
 H        -3.614982         1.491818         1.488811
 H        -2.225294         1.228823        -1.287078
 H        -1.694775         2.461106         0.020871
 H         1.013739         0.101725         0.226742
 H        -1.955309        -1.120693        -0.831035
 H        -0.882453        -1.718194         0.589860
