19
Iteration:   723charge 0 multiplicity 1
 O        -3.543887        -1.765395         1.139278
 C        -2.727888        -0.617488         1.108199
 C        -1.943576        -0.424573         2.496426
 C        -1.485130         0.957699         1.913974
 C        -2.870783         1.070957         1.079060
 C        -2.022855         1.620385        -0.077982
 C        -0.972714         0.549998         0.292247
 O         0.479446         0.399933         0.015717
 C        -1.763416        -0.797842        -0.080249
 H        -4.544122        -1.541789         1.042763
 H        -2.495891        -0.211157         3.392185
 H        -1.149848        -1.230109         2.513891
 H        -1.063797         1.796173         2.369049
 H        -3.869040         1.523369         1.468799
 H        -2.379656         1.745764        -1.134755
 H        -1.507353         2.597581         0.290583
 H         0.344233        -0.378495        -0.582277
 H        -2.407474        -0.535649        -0.953673
 H        -1.195237        -1.722333         0.012069
