19
Iteration:  2582
 O        -3.817261        -1.504511         1.211273
 C        -2.728797        -0.636105         1.080103
 C        -1.777083        -0.571130         2.371898
 C        -1.404398         0.882271         1.752597
 C        -2.799264         1.025246         1.167246
 C        -2.169021         1.484316        -0.211393
 C        -0.911956         0.524094         0.350506
 O         0.442161         0.491171         0.145394
 C        -1.652475        -0.815179        -0.047125
 H        -4.491207        -1.354281         0.459914
 H        -2.473338        -0.656887         3.265983
 H        -0.936335        -1.315455         2.411491
 H        -1.060376         1.673610         2.367746
 H        -3.537972         1.295702         1.849059
 H        -2.525452         1.175869        -1.250420
 H        -1.994377         2.583492        -0.358786
 H         0.805842         1.076008         0.862240
 H        -2.131532        -0.694522        -1.060232
 H        -1.083816        -1.781114        -0.137936
