19
Iteration:  3060
 O        -3.824217        -1.605329         1.231942
 C        -2.781679        -0.622931         1.116821
 C        -1.961167        -0.483656         2.371233
 C        -1.341740         0.716791         1.753631
 C        -2.720147         1.065477         1.090825
 C        -2.078045         1.535264        -0.167583
 C        -0.957221         0.528777         0.272242
 O         0.411495         0.627093         0.066803
 C        -1.650209        -0.875498         0.034485
 H        -3.938827        -1.984433         0.331339
 H        -2.691037        -0.281295         3.178814
 H        -1.417110        -1.391148         2.610361
 H        -0.827306         1.462876         2.318721
 H        -3.350114         1.593042         1.754308
 H        -2.460982         1.488526        -1.192789
 H        -1.699388         2.533249         0.119939
 H         0.923702         1.085142         0.749075
 H        -1.909774        -1.080900        -0.949800
 H        -0.897917        -1.630848         0.315300
