19
Iteration:  2139charge 0 multiplicity 1
 O        -3.829079        -1.446448         0.791230
 C        -2.695090        -0.563319         1.261557
 C        -1.905876        -0.419179         2.556974
 C        -1.378089         0.735659         1.812096
 C        -2.722800         1.042498         1.158132
 C        -2.182152         1.266788        -0.223303
 C        -0.906486         0.393523         0.313914
 O         0.362995         0.814340        -0.116054
 C        -1.548791        -0.981947         0.283787
 H        -4.577310        -1.458623         1.492223
 H        -2.469656        -0.116763         3.472871
 H        -1.260579        -1.203601         3.050583
 H        -0.818809         1.543675         2.164857
 H        -3.491115         1.595937         1.618998
 H        -2.832694         0.861144        -1.013129
 H        -1.788987         2.294751        -0.420518
 H         1.023800         0.590802         0.562273
 H        -1.915834        -1.236619        -0.750896
 H        -1.088962        -1.921043         0.716154
