19
Iteration:  3154charge 0 multiplicity 1
 O        -3.804380        -1.543048         0.879705
 C        -2.703400        -0.554618         1.146727
 C        -2.108670        -0.481573         2.616446
 C        -1.287257         0.630455         1.924327
 C        -2.710845         1.052516         1.120457
 C        -2.002923         1.433229        -0.144858
 C        -0.933105         0.505950         0.361332
 O         0.364099         0.682806        -0.147085
 C        -1.621265        -0.847028         0.191318
 H        -3.803617        -2.162165         1.664695
 H        -2.888686        -0.090824         3.269227
 H        -1.635361        -1.429543         3.020318
 H        -0.704469         1.435791         2.364401
 H        -3.530130         1.627652         1.591170
 H        -2.366257         1.197513        -1.138673
 H        -1.539102         2.426249        -0.170289
 H         0.302336         1.283924        -0.947505
 H        -2.160886        -1.170826        -0.783911
 H        -0.967752        -1.703525         0.485447
