19
Iteration:     9
 O        -3.746211        -1.617447         1.008366
 C        -2.685705        -0.632473         1.200204
 C        -1.970257        -0.410573         2.485642
 C        -1.390395         0.787528         1.804438
 C        -2.761903         0.965169         1.097599
 C        -2.005649         1.479222        -0.179799
 C        -0.969262         0.478307         0.315971
 O         0.367919         0.692778        -0.092246
 C        -1.656336        -0.854433         0.153046
 H        -4.389102        -1.220320         1.642274
 H        -2.578736        -0.196073         3.460802
 H        -1.442811        -1.386677         2.794070
 H        -0.969040         1.633614         2.430796
 H        -3.507560         1.472100         1.627214
 H        -2.701321         1.429353        -1.118603
 H        -1.723921         2.488441        -0.031076
 H         0.894302        -0.022912         0.289034
 H        -2.109350        -0.996303        -0.861623
 H        -0.891895        -1.643887         0.244588
