19
Iteration:   564
 O        -3.706953        -1.645059         1.152364
 C        -2.718180        -0.636654         1.147815
 C        -1.857013        -0.544991         2.322685
 C        -1.484657         0.847208         1.843936
 C        -2.810784         1.048074         1.066477
 C        -2.034541         1.571893        -0.103996
 C        -0.945382         0.549593         0.303603
 O         0.469652         0.544509         0.108341
 C        -1.811369        -0.744679        -0.033886
 H        -3.451461        -2.038832         2.054280
 H        -2.432473        -0.652314         3.217909
 H        -1.085084        -1.320418         2.305174
 H        -1.077115         1.620564         2.453879
 H        -3.725321         1.401186         1.352987
 H        -2.455857         1.672999        -1.117327
 H        -1.638338         2.536011         0.271042
 H         0.582029         0.085931        -0.762338
 H        -2.389844        -0.563430        -0.882017
 H        -1.333594        -1.701619         0.052043
