19
Iteration:   505charge 0 multiplicity 1
 O        -3.937438        -1.264349         1.045495
 C        -2.684686        -0.658740         1.129561
 C        -1.784235        -0.640730         2.520030
 C        -1.432103         0.698910         1.778591
 C        -2.780939         0.856361         1.178093
 C        -2.152397         1.439751        -0.102609
 C        -0.952748         0.520516         0.357345
 O         0.479653         0.804741        -0.041136
 C        -1.591378        -0.888817         0.072444
 H        -3.796439        -2.238096         1.139224
 H        -2.349422        -0.567206         3.479045
 H        -0.978211        -1.387412         2.552383
 H        -0.874944         1.523716         2.300927
 H        -3.786685         1.248971         1.675000
 H        -2.468780         1.273244        -1.119211
 H        -1.962153         2.510964         0.046049
 H         0.288692         0.496570        -0.930676
 H        -1.895519        -1.080246        -0.947330
 H        -1.061287        -1.820055         0.209915
