19
Iteration:  4987charge 0 multiplicity 1
 O        -3.877335        -1.522538         1.017889
 C        -2.752869        -0.723969         1.122699
 C        -1.881308        -0.582635         2.453231
 C        -1.421280         0.702595         1.898668
 C        -2.803907         0.948251         1.080594
 C        -1.967041         1.574636        -0.169745
 C        -0.955993         0.643620         0.418836
 O         0.557874         0.551067         0.015854
 C        -1.729571        -0.800951         0.069677
 H        -4.606294        -1.098427         1.482718
 H        -2.465710        -0.452688         3.344548
 H        -1.080940        -1.265589         2.634182
 H        -1.083248         1.549276         2.401556
 H        -3.665187         1.630686         1.453646
 H        -2.221751         1.225397        -1.192029
 H        -1.830255         2.629777         0.127370
 H         0.644230         1.121802        -0.721694
 H        -2.173566        -0.814808        -0.974681
 H        -1.007115        -1.615089         0.092209
