19
Iteration:  1369
 O        -3.822541        -1.564438         1.164752
 C        -2.743074        -0.629376         1.085120
 C        -1.709073        -0.551885         2.384032
 C        -1.407824         0.839506         1.757646
 C        -2.836364         1.022908         1.056933
 C        -2.143947         1.498806        -0.256956
 C        -0.995095         0.479557         0.306432
 O         0.438365         0.601472         0.232087
 C        -1.679264        -0.802168         0.054634
 H        -4.288072        -1.391855         2.045517
 H        -2.368900        -0.642730         3.291944
 H        -0.893491        -1.303315         2.412502
 H        -0.752691         1.551038         2.333202
 H        -3.715513         1.610243         1.411241
 H        -2.634577         1.231275        -1.235348
 H        -1.681751         2.550402        -0.237965
 H         0.886274         0.742269        -0.599001
 H        -1.920662        -0.989987        -1.023158
 H        -1.061359        -1.723578         0.277969
