19
Iteration:  1997charge 0 multiplicity 1
 O        -3.896031        -1.259927         0.930116
 C        -2.660278        -0.652005         1.269078
 C        -2.099233        -0.474962         2.612393
 C        -1.501586         0.788276         2.045894
 C        -2.713698         0.862748         1.036602
 C        -2.036705         1.363237        -0.176734
 C        -0.865995         0.468295         0.308269
 O         0.361170         0.796638        -0.401215
 C        -1.347031        -0.990691         0.363772
 H        -3.963478        -2.246136         0.714350
 H        -2.956708        -0.221648         3.283199
 H        -1.616095        -1.369130         3.112392
 H        -1.163799         1.693634         2.590379
 H        -3.736269         1.287608         1.220349
 H        -2.546148         1.234265        -1.145395
 H        -1.831284         2.415030         0.102417
 H         0.681363        -0.079732        -0.611727
 H        -1.713223        -1.517749        -0.601957
 H        -0.650253        -1.625860         1.022697
