19
Iteration:  4602charge 0 multiplicity 1
 O        -3.993792        -1.429596         1.030619
 C        -2.778369        -0.703783         1.175645
 C        -1.925259        -0.535076         2.472365
 C        -1.399569         0.789608         1.813910
 C        -2.811092         1.000780         1.099286
 C        -2.063335         1.459480        -0.104420
 C        -0.936400         0.564142         0.390702
 O         0.557719         0.609117        -0.028095
 C        -1.517686        -0.887087         0.168697
 H        -4.032696        -1.563821         0.033372
 H        -2.529504        -0.095786         3.266624
 H        -1.260202        -1.441346         2.742685
 H        -0.907456         1.571224         2.431904
 H        -3.634430         1.586041         1.393726
 H        -2.496904         1.227693        -1.106663
 H        -1.723662         2.458732        -0.047657
 H         0.565928         0.419546        -1.028511
 H        -1.824330        -1.216062        -0.792577
 H        -0.751909        -1.557025         0.555702
