19
Iteration:  2216charge 0 multiplicity 1
 O        -3.733719        -1.590114         1.241652
 C        -2.743623        -0.651479         1.173574
 C        -2.034985        -0.481686         2.454263
 C        -1.440791         0.817058         1.804660
 C        -2.791120         1.041479         0.999490
 C        -1.976485         1.512110        -0.247861
 C        -0.968044         0.465267         0.329037
 O         0.422920         0.669594        -0.007266
 C        -1.663174        -0.847925         0.092719
 H        -3.910938        -2.178832         0.503817
 H        -2.671842        -0.152874         3.309769
 H        -1.228901        -1.158304         2.793738
 H        -0.959589         1.576417         2.312095
 H        -3.526651         1.566771         1.501235
 H        -2.431468         1.477326        -1.253088
 H        -1.500492         2.528347        -0.189334
 H         0.882680        -0.112223         0.312545
 H        -2.108179        -0.914508        -0.935911
 H        -0.905818        -1.642040         0.302541
