19
Iteration:  1170charge 0 multiplicity 1
 O        -3.875858        -1.305788         0.810221
 C        -2.659880        -0.655778         1.146664
 C        -1.795687        -0.593468         2.561240
 C        -1.379058         0.714878         1.973616
 C        -2.716721         0.927307         1.265480
 C        -2.172339         1.504204         0.025740
 C        -0.938395         0.563062         0.323000
 O         0.256576         0.539231        -0.214699
 C        -1.540531        -0.838341         0.139623
 H        -3.662199        -2.186609         0.564343
 H        -2.479399        -0.451051         3.412039
 H        -1.075338        -1.422966         2.770924
 H        -0.852930         1.469576         2.444874
 H        -3.684625         1.212962         1.717820
 H        -2.599339         1.218093        -0.974493
 H        -1.981588         2.627215         0.042005
 H         0.632195         1.394045        -0.540007
 H        -1.922406        -0.921264        -0.902983
 H        -0.791358        -1.617853         0.379633
