19
Iteration:   152
 O        -3.942516        -1.338273         1.008841
 C        -2.682695        -0.655150         1.144997
 C        -1.928645        -0.497291         2.585617
 C        -1.360109         0.726648         1.924188
 C        -2.765407         0.902418         1.164676
 C        -2.053191         1.374193        -0.178703
 C        -0.923763         0.494609         0.333754
 O         0.368723         0.766997        -0.263195
 C        -1.515232        -1.009448         0.254028
 H        -3.971882        -1.688309         0.136576
 H        -2.641403        -0.187553         3.337776
 H        -1.200059        -1.272423         2.871462
 H        -0.968141         1.569125         2.460663
 H        -3.676531         1.151072         1.615352
 H        -2.567849         0.951283        -1.097138
 H        -1.796636         2.397621        -0.209029
 H         0.653870         1.672244        -0.110638
 H        -1.726542        -1.208532        -0.793715
 H        -0.928901        -1.755523         0.784197
