19
Iteration:  3898
 O        -3.934825        -1.444844         1.012126
 C        -2.819260        -0.618971         1.117829
 C        -1.849598        -0.593762         2.435456
 C        -1.435592         0.766228         1.778569
 C        -2.754723         0.895198         1.090273
 C        -1.991044         1.434314        -0.171273
 C        -0.896560         0.522111         0.353749
 O         0.441715         0.693365         0.010587
 C        -1.605776        -0.824448         0.089993
 H        -4.435454        -1.208951         1.819167
 H        -2.453327        -0.314549         3.353543
 H        -1.201298        -1.420170         2.698850
 H        -1.028976         1.539870         2.457515
 H        -3.532620         1.469353         1.596277
 H        -2.225366         1.306190        -1.213270
 H        -1.802500         2.501982         0.108883
 H         0.850745         0.268931         0.796083
 H        -1.853083        -0.827201        -0.965230
 H        -0.951157        -1.741769         0.308390
