19
Iteration:  1384
 O        -3.711216        -1.662301         1.216796
 C        -2.722525        -0.657430         1.147944
 C        -1.809978        -0.476756         2.285016
 C        -1.475263         0.868830         1.730891
 C        -2.817630         1.067109         1.035605
 C        -2.035968         1.574406        -0.221965
 C        -0.992039         0.593114         0.289944
 O         0.413911         0.455382         0.298284
 C        -1.741948        -0.789781        -0.035146
 H        -3.889428        -1.873495         2.170732
 H        -2.235254        -0.351562         3.323105
 H        -0.974758        -1.227714         2.360985
 H        -0.944632         1.730262         2.200744
 H        -3.732946         1.499438         1.462302
 H        -2.494282         1.443275        -1.258121
 H        -1.851647         2.633899        -0.059578
 H         0.679976         0.212305        -0.613561
 H        -2.338599        -0.741020        -0.980658
 H        -1.066357        -1.657954         0.047647
