19
Iteration:   989charge 0 multiplicity 1
 O        -3.791523        -1.425766         0.967553
 C        -2.703836        -0.611765         1.211692
 C        -2.037423        -0.574580         2.590373
 C        -1.406792         0.683922         1.914875
 C        -2.706011         1.042027         1.237113
 C        -2.024924         1.367593        -0.069096
 C        -0.954321         0.449695         0.345221
 O         0.310416         0.754298        -0.418762
 C        -1.525276        -0.912873         0.231069
 H        -4.065044        -1.330033        -0.002095
 H        -2.677854        -0.237441         3.420144
 H        -1.411792        -1.438882         2.896357
 H        -0.777130         1.435172         2.586725
 H        -3.575184         1.504990         1.612002
 H        -2.478477         1.076992        -1.086690
 H        -1.499482         2.344025        -0.161610
 H         0.494955         1.559215         0.079802
 H        -1.844418        -1.283802        -0.746234
 H        -0.917301        -1.698250         0.749098
