19
Iteration:   640
 O        -4.029124        -1.228455         0.928405
 C        -2.721742        -0.730124         1.194922
 C        -1.763334        -0.612402         2.569554
 C        -1.293652         0.710022         1.928361
 C        -2.680443         0.816165         1.138335
 C        -2.120438         1.255848        -0.247938
 C        -0.967765         0.446173         0.374129
 O         0.287804         0.952564        -0.081004
 C        -1.447227        -0.915318         0.218302
 H        -4.531180        -0.489950         0.692416
 H        -2.333310        -0.451409         3.452723
 H        -1.077116        -1.380745         2.910007
 H        -0.576067         1.349034         2.408979
 H        -3.535037         1.381623         1.484046
 H        -2.489328         0.687663        -1.067831
 H        -2.177745         2.321283        -0.453702
 H         0.289155         0.727138        -1.032897
 H        -1.759072        -1.109701        -0.753601
 H        -0.768823        -1.737982         0.370411
