19
Iteration:  4459
 O        -3.953563        -1.475109         1.075904
 C        -2.740739        -0.628814         1.134464
 C        -1.997953        -0.586561         2.529345
 C        -1.399554         0.788134         1.876592
 C        -2.745728         0.932833         1.060379
 C        -2.011845         1.567155        -0.194607
 C        -0.894418         0.537938         0.301111
 O         0.443453         0.637497         0.011331
 C        -1.536943        -0.848769         0.140275
 H        -4.126414        -1.778477         0.153633
 H        -2.640195        -0.071332         3.297872
 H        -1.363302        -1.500481         2.830493
 H        -0.982424         1.588562         2.455676
 H        -3.493377         1.556131         1.585600
 H        -2.232906         1.195032        -1.252675
 H        -1.839665         2.622672        -0.018019
 H         0.744863        -0.085246        -0.629042
 H        -1.853520        -1.105585        -0.845808
 H        -0.878603        -1.640123         0.535602
