19
Iteration:   604
 O        -3.769981        -1.473874         0.945047
 C        -2.694640        -0.651824         1.172626
 C        -1.943187        -0.571312         2.528508
 C        -1.350059         0.754953         1.853688
 C        -2.731107         0.918012         1.171147
 C        -2.118608         1.492420        -0.102254
 C        -0.983397         0.514373         0.287035
 O         0.362468         0.711364        -0.118102
 C        -1.558193        -0.910812         0.206142
 H        -4.593788        -1.100184         1.202790
 H        -2.621968        -0.184528         3.311165
 H        -1.239075        -1.374650         2.835018
 H        -0.715728         1.506268         2.302741
 H        -3.665111         1.448827         1.664928
 H        -2.697497         1.465245        -1.000137
 H        -1.801328         2.554810         0.111115
 H         0.442371         0.651055        -1.079909
 H        -2.031122        -1.162629        -0.802716
 H        -0.751087        -1.640046         0.490630
