19
Iteration:  1205
 O        -4.025176        -1.371883         1.272953
 C        -2.767253        -0.643487         1.057940
 C        -1.754946        -0.657527         2.348487
 C        -1.391984         0.653584         1.762182
 C        -2.758712         0.901459         1.088235
 C        -2.047970         1.521767        -0.079070
 C        -0.909798         0.522341         0.311338
 O         0.452246         0.764690         0.062414
 C        -1.646270        -0.855221        -0.089769
 H        -3.692323        -2.217380         1.503982
 H        -2.319837        -0.721296         3.332390
 H        -0.960317        -1.461081         2.307850
 H        -0.878546         1.308613         2.401169
 H        -3.658125         1.326564         1.442089
 H        -2.559728         1.330415        -1.061473
 H        -1.800793         2.638708         0.069705
 H         0.783984         1.500415         0.646999
 H        -2.148772        -0.972525        -1.095737
 H        -1.032684        -1.807573        -0.031376
