19
Iteration:  2893
 O        -3.692634        -1.576445         1.070594
 C        -2.745866        -0.649189         1.165409
 C        -1.815356        -0.454108         2.467028
 C        -1.455611         0.848188         1.771222
 C        -2.834856         0.987355         1.115475
 C        -2.070946         1.545514        -0.224256
 C        -0.975926         0.494509         0.336624
 O         0.425173         0.448678         0.077271
 C        -1.720148        -0.790433         0.039499
 H        -4.299874        -1.315906         0.359466
 H        -2.345063        -0.301894         3.417964
 H        -1.012164        -1.213444         2.663197
 H        -0.997431         1.724755         2.336877
 H        -3.632166         1.574632         1.726451
 H        -2.413877         1.252422        -1.229440
 H        -1.843138         2.628802        -0.012187
 H         0.927546         0.789670         0.835406
 H        -2.285691        -0.701160        -0.887960
 H        -1.141448        -1.671573         0.045034
