19
Iteration:  3219
 O        -3.989940        -1.335956         1.189523
 C        -2.679349        -0.681755         1.094564
 C        -1.848781        -0.580021         2.361648
 C        -1.356069         0.777143         1.781419
 C        -2.751114         0.991729         1.101180
 C        -2.070012         1.405039        -0.221717
 C        -0.975371         0.487188         0.276850
 O         0.438070         0.716531         0.250982
 C        -1.578801        -0.903630         0.007197
 H        -3.939297        -2.169136         0.665619
 H        -2.440459        -0.512681         3.269761
 H        -1.005139        -1.265897         2.704331
 H        -0.818824         1.548810         2.317709
 H        -3.666546         1.340018         1.618045
 H        -2.667870         1.098437        -1.052573
 H        -1.813017         2.427081        -0.360359
 H         0.705579         0.922824        -0.647513
 H        -2.199597        -1.117417        -0.951252
 H        -0.964008        -1.781923         0.261534
