19
Iteration:  2440charge 0 multiplicity 1
 O        -3.894441        -1.502198         1.184085
 C        -2.744633        -0.636127         1.147962
 C        -1.881360        -0.580818         2.403897
 C        -1.396470         0.822146         1.816739
 C        -2.810057         1.001661         1.116422
 C        -2.031370         1.436704        -0.192693
 C        -0.927427         0.547485         0.317662
 O         0.427568         0.542932         0.053047
 C        -1.592441        -0.803370         0.057901
 H        -4.316463        -1.408189         0.265103
 H        -2.597717        -0.488479         3.245534
 H        -1.184144        -1.432238         2.583045
 H        -0.916910         1.699308         2.331293
 H        -3.719227         1.370730         1.587586
 H        -2.453099         1.135111        -1.163379
 H        -1.611697         2.436477        -0.185011
 H         0.673337         1.498123         0.033211
 H        -1.788659        -0.886835        -1.039179
 H        -0.763096        -1.518806         0.216710
