19
Iteration:  4643
 O        -3.810678        -1.444807         1.202346
 C        -2.680672        -0.652545         1.078086
 C        -1.885373        -0.518025         2.418406
 C        -1.457254         0.786483         1.797509
 C        -2.827969         1.028178         1.022369
 C        -2.017172         1.458041        -0.176934
 C        -0.905403         0.417146         0.309453
 O         0.471927         0.625859         0.232973
 C        -1.716452        -0.833839        -0.019288
 H        -4.428624        -1.558764         0.489824
 H        -2.649254        -0.340647         3.192384
 H        -1.228361        -1.300801         2.692941
 H        -0.780433         1.531172         2.161727
 H        -3.683189         1.604554         1.444378
 H        -2.303275         1.261573        -1.188581
 H        -1.870085         2.523391         0.167545
 H         0.799707         0.259030        -0.591660
 H        -2.259252        -0.862564        -1.021256
 H        -1.039124        -1.720759         0.221179
