19
Iteration:  4333
 O        -3.869982        -1.540907         1.183377
 C        -2.763803        -0.589939         1.067016
 C        -1.868815        -0.509442         2.312565
 C        -1.507443         0.824748         1.763846
 C        -2.811101         0.967963         1.062032
 C        -2.014524         1.493697        -0.148799
 C        -0.900591         0.553693         0.317347
 O         0.550974         0.498781         0.127284
 C        -1.652544        -0.819209         0.060641
 H        -4.629195        -1.310780         0.681594
 H        -2.541121        -0.442729         3.201714
 H        -1.116296        -1.287475         2.513985
 H        -0.877593         1.614490         2.310613
 H        -3.668488         1.505108         1.439187
 H        -2.519991         1.554057        -1.098207
 H        -1.875098         2.565404         0.151852
 H         0.905339         0.615264         0.986677
 H        -2.105790        -1.039294        -0.953483
 H        -0.987152        -1.648332         0.253161
