19
Iteration:  2875charge 0 multiplicity 1
 O        -3.812715        -1.568643         1.069592
 C        -2.687376        -0.617333         1.245740
 C        -1.916852        -0.538278         2.542154
 C        -1.330454         0.750911         1.857566
 C        -2.712452         1.055710         1.091705
 C        -2.086593         1.458209        -0.232179
 C        -0.943459         0.523602         0.283877
 O         0.420151         0.598609         0.057419
 C        -1.747052        -0.811375        -0.000890
 H        -3.898757        -1.549383         0.094476
 H        -2.659088        -0.304135         3.321493
 H        -1.278950        -1.323560         2.922910
 H        -0.726700         1.499867         2.344683
 H        -3.602071         1.516182         1.413799
 H        -2.606242         1.111851        -1.110625
 H        -1.759644         2.471989        -0.382313
 H         0.741633         1.460260         0.390854
 H        -2.343731        -0.896011        -0.931079
 H        -1.241313        -1.813289         0.127791
