19
Iteration:  4636
 O        -3.757527        -1.378265         1.173507
 C        -2.672205        -0.633278         1.131862
 C        -1.879690        -0.549585         2.349014
 C        -1.477829         0.809959         1.813157
 C        -2.855952         0.993082         1.000799
 C        -2.033545         1.469116        -0.154015
 C        -0.930985         0.449171         0.376965
 O         0.445027         0.595373         0.205013
 C        -1.694275        -0.899567         0.036667
 H        -4.230084        -1.372636         0.302039
 H        -2.449593        -0.369013         3.263883
 H        -1.185969        -1.445693         2.581971
 H        -0.944435         1.660598         2.344882
 H        -3.743772         1.498919         1.287442
 H        -2.319599         1.364729        -1.230448
 H        -1.615469         2.461589        -0.048796
 H         0.480224         0.196904        -0.711935
 H        -2.158857        -0.868025        -0.918283
 H        -1.045352        -1.748932         0.111608
