19
Iteration:  2390
 O        -3.806399        -1.653978         1.251667
 C        -2.808088        -0.667736         1.140529
 C        -1.942054        -0.431831         2.507094
 C        -1.491230         0.767845         1.817886
 C        -2.828534         0.984796         1.013730
 C        -1.898058         1.598681        -0.165480
 C        -0.921328         0.515426         0.317217
 O         0.416093         0.552289        -0.035276
 C        -1.630358        -0.773273        -0.029927
 H        -4.126746        -2.060242         0.457489
 H        -2.600796        -0.220228         3.351163
 H        -1.132924        -1.081301         2.788066
 H        -0.906669         1.526166         2.250486
 H        -3.603248         1.615419         1.360942
 H        -2.199941         1.592122        -1.214934
 H        -1.582678         2.569124         0.256248
 H         0.994591         0.655199         0.759751
 H        -2.132667        -0.737750        -0.984220
 H        -0.982681        -1.650017        -0.024371
