19
Iteration:  3429
 O        -3.758291        -1.620743         1.022259
 C        -2.761058        -0.653119         1.147297
 C        -2.069779        -0.402202         2.515586
 C        -1.335360         0.784521         1.853757
 C        -2.699568         1.047634         1.119761
 C        -1.989256         1.561246        -0.129314
 C        -0.946684         0.450942         0.381038
 O         0.326093         0.599829        -0.126014
 C        -1.652928        -0.805547         0.120755
 H        -3.914454        -1.914318         0.066011
 H        -2.882250        -0.150929         3.292488
 H        -1.399772        -1.077701         3.156786
 H        -0.725546         1.548553         2.452364
 H        -3.657220         1.425176         1.478437
 H        -2.456065         1.520649        -1.089762
 H        -1.531112         2.584622         0.004437
 H         0.969696        -0.092227         0.194612
 H        -1.829592        -1.190569        -0.935033
 H        -0.957203        -1.602615         0.602321
