19
Iteration:   526
 O        -3.950250        -1.422962         1.208550
 C        -2.632639        -0.703614         1.093289
 C        -1.738216        -0.595653         2.271710
 C        -1.379584         0.806265         1.789389
 C        -2.762107         0.889445         1.126886
 C        -2.175962         1.539534        -0.123122
 C        -0.968808         0.529879         0.250967
 O         0.412076         0.676194         0.187150
 C        -1.631457        -0.789592        -0.040028
 H        -4.040067        -2.221873         1.691160
 H        -2.285716        -0.473176         3.253729
 H        -0.977063        -1.396044         2.399843
 H        -0.991302         1.623689         2.479546
 H        -3.755334         1.347191         1.567181
 H        -2.635369         1.492383        -1.122795
 H        -1.827412         2.539858         0.109125
 H         0.889204         0.070169        -0.426368
 H        -2.134468        -0.982811        -1.039059
 H        -0.920208        -1.639582         0.006048
