19
Iteration:   648
 O        -4.039916        -1.226165         0.969125
 C        -2.643570        -0.716096         1.254629
 C        -1.805959        -0.593754         2.557049
 C        -1.277921         0.714422         1.878957
 C        -2.705551         0.795762         1.120159
 C        -2.132156         1.236903        -0.255303
 C        -0.924336         0.501947         0.321484
 O         0.280976         0.924266        -0.012452
 C        -1.479348        -0.931417         0.163171
 H        -4.474985        -0.430442         0.753578
 H        -2.468161        -0.522750         3.428792
 H        -1.113502        -1.477121         2.625650
 H        -0.750230         1.515724         2.303988
 H        -3.601599         1.186760         1.803123
 H        -2.338755         0.769997        -1.185879
 H        -2.123788         2.373265        -0.370111
 H         0.412246         0.807079        -0.960578
 H        -1.795869        -1.191824        -0.896878
 H        -0.731131        -1.766615         0.389252
