19
Iteration:   788charge 0 multiplicity 1
 O        -3.976756        -1.199636         0.998819
 C        -2.732271        -0.693299         1.101438
 C        -1.900098        -0.573173         2.502255
 C        -1.397505         0.738661         1.900737
 C        -2.745223         0.886949         1.135835
 C        -2.051598         1.276207        -0.136700
 C        -0.883313         0.419912         0.414097
 O         0.357914         1.009185        -0.198652
 C        -1.510856        -1.106877         0.141416
 H        -4.122951        -1.709144         1.776734
 H        -2.549788        -0.295542         3.333220
 H        -1.269113        -1.449979         2.563950
 H        -0.875895         1.511903         2.352850
 H        -3.713952         1.322721         1.573647
 H        -2.422814         0.879339        -1.105875
 H        -1.661241         2.351578        -0.223101
 H         1.111266         0.654313         0.274202
 H        -1.763914        -1.118431        -0.937521
 H        -0.938063        -1.944063         0.541475
