19
Iteration:  2021
 O        -3.913023        -1.264362         0.909469
 C        -2.691739        -0.662652         1.190780
 C        -1.923134        -0.456750         2.595196
 C        -1.390415         0.830920         1.819813
 C        -2.785124         0.921416         1.107870
 C        -2.137440         1.279378        -0.209631
 C        -0.947953         0.494044         0.421969
 O         0.339107         0.725131        -0.173804
 C        -1.394465        -0.963778         0.247789
 H        -3.916925        -2.088867         0.417853
 H        -2.533696        -0.186940         3.460574
 H        -1.174972        -1.180367         2.954138
 H        -0.975830         1.681980         2.351158
 H        -3.624939         1.381555         1.569700
 H        -2.586773         0.847626        -1.091507
 H        -1.824931         2.345523        -0.254122
 H         0.798691         0.034407         0.342132
 H        -1.754374        -1.324266        -0.749718
 H        -0.737139        -1.660567         0.806380
