19
Iteration:  1206
 O        -4.030704        -1.380228         1.284857
 C        -2.769286        -0.637933         1.053375
 C        -1.760196        -0.657004         2.337986
 C        -1.386065         0.648787         1.764115
 C        -2.760731         0.902448         1.087304
 C        -2.036373         1.526232        -0.088095
 C        -0.918696         0.526152         0.315672
 O         0.454750         0.769699         0.067093
 C        -1.649306        -0.860257        -0.100299
 H        -3.666729        -2.221150         1.533991
 H        -2.298360        -0.728290         3.340611
 H        -0.960570        -1.452502         2.300555
 H        -0.846544         1.321157         2.442192
 H        -3.655131         1.345184         1.446595
 H        -2.560277         1.338130        -1.055734
 H        -1.798739         2.632484         0.046611
 H         0.768959         1.483298         0.686634
 H        -2.128737        -0.998336        -1.111582
 H        -1.028660        -1.807812        -0.028520
