19
Iteration:   503
 O        -3.935603        -1.263292         1.031318
 C        -2.676922        -0.654893         1.133921
 C        -1.800236        -0.645872         2.526198
 C        -1.432542         0.695997         1.787934
 C        -2.769241         0.863042         1.194278
 C        -2.138317         1.428068        -0.103389
 C        -0.956089         0.511030         0.359258
 O         0.461295         0.813002        -0.061655
 C        -1.584244        -0.874351         0.091998
 H        -3.848052        -2.284662         1.056784
 H        -2.355755        -0.547514         3.516845
 H        -1.003532        -1.415981         2.577368
 H        -0.885593         1.540983         2.314970
 H        -3.712038         1.239107         1.646612
 H        -2.449342         1.229482        -1.161451
 H        -1.908987         2.458273         0.028255
 H         0.255722         0.568146        -0.985029
 H        -1.941497        -1.104444        -0.982388
 H        -1.022386        -1.820444         0.267931
