19
Iteration:  2315charge 0 multiplicity 1
 O        -3.903132        -1.382424         1.050208
 C        -2.712604        -0.637201         1.197744
 C        -2.057205        -0.459883         2.591360
 C        -1.309160         0.648914         1.846175
 C        -2.706499         0.890498         1.057050
 C        -2.056487         1.255651        -0.185275
 C        -0.899832         0.417064         0.301529
 O         0.449369         0.954689        -0.078506
 C        -1.570358        -0.970320         0.204081
 H        -4.449986        -1.212755         0.222072
 H        -2.767619        -0.020447         3.328818
 H        -1.507673        -1.375258         2.949029
 H        -0.918572         1.469069         2.383648
 H        -3.542043         1.417035         1.478723
 H        -2.457686         1.123174        -1.227184
 H        -1.662351         2.316768        -0.071527
 H         0.596207         1.041165        -1.029669
 H        -1.954972        -1.319809        -0.791491
 H        -1.074426        -1.809395         0.737396
