19
Iteration:   766charge 0 multiplicity 1
 O        -3.889520        -1.474975         1.001326
 C        -2.752935        -0.641336         1.220966
 C        -1.842303        -0.597888         2.491311
 C        -1.412106         0.806248         1.857689
 C        -2.762374         0.927302         1.092045
 C        -2.034225         1.451615        -0.197722
 C        -0.919848         0.493991         0.306420
 O         0.386382         0.763494        -0.087937
 C        -1.582717        -0.864717         0.129758
 H        -4.424563        -1.500044         1.853193
 H        -2.475662        -0.344125         3.333109
 H        -1.173296        -1.441188         2.607067
 H        -0.999960         1.551643         2.478485
 H        -3.659707         1.501980         1.444271
 H        -2.513209         1.214523        -1.175843
 H        -1.844984         2.556689        -0.061578
 H         0.981242         0.048185         0.250674
 H        -2.033397        -0.930285        -0.881739
 H        -0.879006        -1.653590         0.394760
