19
Iteration:   254charge 0 multiplicity 1
 O        -3.927952        -1.370525         1.222390
 C        -2.677333        -0.662737         1.126766
 C        -1.801752        -0.651536         2.351580
 C        -1.445630         0.810911         1.776377
 C        -2.789678         0.873428         1.137803
 C        -2.122071         1.452054        -0.103409
 C        -0.931682         0.473105         0.345450
 O         0.447382         0.667201         0.002463
 C        -1.570670        -0.815173         0.040450
 H        -4.303266        -1.805871         0.381373
 H        -2.342153        -0.583855         3.301568
 H        -1.114264        -1.460040         2.475505
 H        -0.899880         1.554550         2.399973
 H        -3.748563         1.341885         1.665608
 H        -2.533925         1.367771        -1.062864
 H        -1.846406         2.557218        -0.005504
 H         0.659318         1.567715        -0.348540
 H        -1.931952        -0.855213        -0.952247
 H        -0.934698        -1.675893         0.130023
