19
Iteration:  1918
 O        -3.860736        -1.471482         1.272005
 C        -2.675119        -0.702391         1.125607
 C        -1.689489        -0.494717         2.322362
 C        -1.443829         0.843301         1.725370
 C        -2.850646         0.963873         1.042631
 C        -2.134585         1.484597        -0.219732
 C        -0.967605         0.534103         0.280282
 O         0.470656         0.577345         0.233867
 C        -1.670342        -0.921272        -0.025704
 H        -4.507656        -0.904678         0.737184
 H        -2.214682        -0.525102         3.299564
 H        -0.768518        -1.109051         2.186216
 H        -0.991371         1.700142         2.219024
 H        -3.848172         1.342675         1.371167
 H        -2.516499         1.271172        -1.255040
 H        -2.092757         2.549992        -0.049193
 H         0.659799         0.570333         1.169743
 H        -1.986341        -0.661112        -1.058588
 H        -1.060179        -1.907476        -0.041084
