19
Iteration:   701charge 0 multiplicity 1
 O        -3.686498        -1.714511         1.182407
 C        -2.747924        -0.704698         1.191141
 C        -1.874237        -0.512447         2.434248
 C        -1.491748         0.804362         1.815254
 C        -2.766127         1.018483         1.027803
 C        -1.945257         1.603910        -0.180900
 C        -0.961819         0.567218         0.320243
 O         0.376334         0.521472         0.045415
 C        -1.716226        -0.713496         0.072681
 H        -4.566144        -1.456842         1.039303
 H        -2.615478        -0.159971         3.182700
 H        -1.214675        -1.367438         2.739195
 H        -1.068267         1.660310         2.260340
 H        -3.574130         1.676230         1.507325
 H        -2.277440         1.447499        -1.240717
 H        -1.731836         2.712492         0.026298
 H         0.456268         0.327704        -0.899249
 H        -2.178207        -0.495857        -0.926339
 H        -0.970335        -1.512838         0.183910
