19
Iteration:   278charge 0 multiplicity 1
 O        -3.907916        -1.356850         0.961576
 C        -2.690590        -0.629323         1.170100
 C        -1.915239        -0.633075         2.586822
 C        -1.332336         0.694788         1.974588
 C        -2.704775         0.913245         1.179508
 C        -2.119162         1.424998        -0.076007
 C        -0.940653         0.525479         0.347592
 O         0.301759         0.748953        -0.282617
 C        -1.499640        -0.931649         0.160494
 H        -4.137984        -1.401163         0.044638
 H        -2.540197        -0.403573         3.470453
 H        -1.352453        -1.523318         2.885637
 H        -0.740208         1.423564         2.625312
 H        -3.579353         1.486212         1.575569
 H        -2.465899         1.161986        -1.039304
 H        -1.836957         2.496302        -0.163591
 H         0.591495         1.660392        -0.508601
 H        -1.691669        -1.316796        -0.843728
 H        -0.874666        -1.712724         0.642767
