19
Iteration:  3387charge 0 multiplicity 1
 O        -3.969517        -1.425356         1.249163
 C        -2.712274        -0.595929         1.048755
 C        -1.782444        -0.536329         2.337328
 C        -1.493567         0.797415         1.873218
 C        -2.783811         0.874315         1.015837
 C        -2.018154         1.414001        -0.175603
 C        -0.917184         0.544747         0.389374
 O         0.491796         0.652407         0.057582
 C        -1.626997        -0.852209         0.037718
 H        -4.416731        -1.581109         0.396274
 H        -2.457533        -0.420231         3.250985
 H        -1.028042        -1.361408         2.340251
 H        -0.924720         1.660241         2.373716
 H        -3.767790         1.301595         1.350395
 H        -2.401047         1.174095        -1.150967
 H        -1.945393         2.526742        -0.178829
 H         0.780018         0.462997         0.938445
 H        -1.909881        -0.801065        -1.069327
 H        -1.022143        -1.825993         0.202289
