19
Iteration:   643charge 0 multiplicity 1
 O        -4.039405        -1.228545         0.942848
 C        -2.694246        -0.730382         1.225535
 C        -1.772976        -0.598661         2.562777
 C        -1.286215         0.709497         1.914662
 C        -2.689446         0.801120         1.126440
 C        -2.116480         1.260063        -0.250728
 C        -0.956816         0.457517         0.347412
 O         0.276105         0.944813        -0.049215
 C        -1.453591        -0.901292         0.207454
 H        -4.549592        -0.389887         0.693299
 H        -2.409927        -0.532879         3.484021
 H        -1.109249        -1.429615         2.819005
 H        -0.537154         1.465573         2.400285
 H        -3.498881         1.260777         1.596740
 H        -2.383427         0.628614        -1.202663
 H        -2.212837         2.301845        -0.430504
 H         0.312276         0.740434        -1.025185
 H        -1.726089        -1.205911        -0.827467
 H        -0.790615        -1.745212         0.270983
