19
Iteration:  3595charge 0 multiplicity 1
 O        -3.843538        -1.472645         1.003690
 C        -2.714644        -0.545739         1.152591
 C        -1.958094        -0.465276         2.517139
 C        -1.374389         0.811947         1.851840
 C        -2.759515         0.970729         1.065282
 C        -2.053691         1.391530        -0.149223
 C        -0.922089         0.472266         0.417919
 O         0.412123         0.551732        -0.004426
 C        -1.629907        -0.857768         0.095419
 H        -3.950269        -1.953800         0.134629
 H        -2.565443        -0.005877         3.327979
 H        -1.334995        -1.341849         2.798616
 H        -0.660207         1.413561         2.365156
 H        -3.522806         1.456016         1.692330
 H        -2.562352         1.177501        -1.072170
 H        -1.705221         2.406880        -0.301313
 H         0.538459         1.530348        -0.244437
 H        -2.097599        -1.024760        -0.879992
 H        -1.039627        -1.742557         0.456731
