19
Iteration:  1609
 O        -3.873716        -1.486937         1.116303
 C        -2.721548        -0.660047         1.183451
 C        -1.804136        -0.443308         2.436651
 C        -1.443469         0.872904         1.757443
 C        -2.838538         0.987783         1.096872
 C        -2.085385         1.444715        -0.307815
 C        -0.957692         0.535153         0.300129
 O         0.432988         0.619435         0.180566
 C        -1.619913        -0.924767         0.071081
 H        -3.618829        -2.350188         1.479375
 H        -2.246466        -0.253052         3.437504
 H        -0.974257        -1.190953         2.476330
 H        -0.813194         1.677435         2.283816
 H        -3.714607         1.628071         1.442870
 H        -2.575638         1.255729        -1.280247
 H        -2.042341         2.542490        -0.157285
 H         0.904962         0.203974        -0.545578
 H        -1.999047        -1.059067        -0.981306
 H        -0.977493        -1.800819         0.321218
