19
Iteration:   227
 O        -3.753082        -1.581745         1.380125
 C        -2.680746        -0.699922         1.107948
 C        -1.759903        -0.604151         2.297284
 C        -1.484707         0.813391         1.743281
 C        -2.793722         0.993793         1.052951
 C        -1.998270         1.702538        -0.228777
 C        -0.998799         0.519845         0.309429
 O         0.415204         0.518951         0.227281
 C        -1.821289        -0.796259        -0.088216
 H        -4.189653        -1.988300         0.562915
 H        -2.383305        -0.517103         3.212470
 H        -0.862188        -1.298238         2.427205
 H        -0.900757         1.427785         2.410621
 H        -3.602090         1.412254         1.498478
 H        -2.399522         1.512868        -1.335901
 H        -1.806205         2.755199        -0.032583
 H         0.768765         1.444561         0.178894
 H        -2.400657        -0.722287        -1.072565
 H        -1.118405        -1.665002        -0.204014
