19
Iteration:  1149charge 0 multiplicity 1
 O        -3.801473        -1.411958         0.725506
 C        -2.777414        -0.625957         1.245706
 C        -1.972878        -0.616893         2.552959
 C        -1.318491         0.763631         1.982044
 C        -2.739897         1.006922         1.383862
 C        -2.110165         1.493993         0.001839
 C        -0.927899         0.536815         0.408173
 O         0.293097         0.586756        -0.483174
 C        -1.533104        -0.882572         0.290720
 H        -3.330013        -1.939668         0.019501
 H        -2.618777        -0.415537         3.437620
 H        -1.347386        -1.559399         2.661308
 H        -0.888288         1.328324         2.686830
 H        -3.486874         1.513375         2.016180
 H        -2.623768         1.343717        -1.020393
 H        -1.656848         2.556979         0.108628
 H         0.529329         1.506847        -0.602061
 H        -1.896306        -1.236161        -0.708153
 H        -0.746542        -1.489804         0.797811
