19
Iteration:  2438
 O        -3.890455        -1.529787         1.201732
 C        -2.744234        -0.625986         1.143963
 C        -1.901716        -0.576191         2.405279
 C        -1.400928         0.807942         1.813252
 C        -2.796374         1.030106         1.113335
 C        -2.028898         1.455662        -0.204741
 C        -0.925323         0.533091         0.307478
 O         0.431777         0.547360         0.066571
 C        -1.595791        -0.802080         0.037475
 H        -4.287529        -1.426508         0.306139
 H        -2.582764        -0.469411         3.280290
 H        -1.186687        -1.456494         2.554846
 H        -0.833685         1.666353         2.357522
 H        -3.750938         1.402293         1.619970
 H        -2.450794         1.096501        -1.179561
 H        -1.612033         2.495644        -0.166251
 H         0.596237         1.492554         0.080219
 H        -1.801541        -0.903127        -1.080424
 H        -0.784748        -1.540415         0.225204
