19
Iteration:  3349charge 0 multiplicity 1
 O        -3.889856        -1.347940         1.206999
 C        -2.728651        -0.640173         1.067243
 C        -1.944639        -0.602386         2.450464
 C        -1.393359         0.693957         1.839607
 C        -2.797525         0.914756         1.023383
 C        -1.991557         1.467918        -0.146733
 C        -0.906650         0.450150         0.231046
 O         0.418174         0.841170        -0.004622
 C        -1.548416        -0.980218         0.112392
 H        -4.564933        -1.178600         0.472765
 H        -2.643546        -0.420538         3.247920
 H        -1.345889        -1.520803         2.633441
 H        -1.013083         1.427223         2.493443
 H        -3.744042         1.337483         1.343520
 H        -2.368532         1.352378        -1.207001
 H        -1.777401         2.498847         0.085796
 H         0.976716         0.540075         0.778551
 H        -1.925643        -1.225091        -0.859851
 H        -1.064366        -1.824879         0.516279
