19
Iteration:   755
 O        -3.754858        -1.579277         1.037343
 C        -2.711329        -0.680490         1.169293
 C        -1.890149        -0.520506         2.477090
 C        -1.380250         0.765822         1.838668
 C        -2.808121         1.006795         1.072173
 C        -2.076939         1.558446        -0.181474
 C        -1.005905         0.620651         0.363666
 O         0.392774         0.608693        -0.049522
 C        -1.628602        -0.839929         0.107758
 H        -4.479280        -1.316112         1.613996
 H        -2.254910        -0.292683         3.469070
 H        -1.338173        -1.432820         2.644903
 H        -0.859299         1.571184         2.268943
 H        -3.705205         1.490034         1.555693
 H        -2.363565         1.398044        -1.250720
 H        -1.736743         2.636038        -0.086734
 H         0.716038        -0.277004         0.235760
 H        -1.971917        -0.969791        -0.946422
 H        -0.947404        -1.689004         0.191451
