19
Iteration:  3131charge 0 multiplicity 1
 O        -3.870472        -1.493762         0.980346
 C        -2.745087        -0.622899         1.133875
 C        -2.006969        -0.549761         2.479303
 C        -1.386389         0.735171         1.802184
 C        -2.728753         1.017527         1.155846
 C        -2.066417         1.450804        -0.147048
 C        -0.903229         0.497164         0.319634
 O         0.461016         0.689302        -0.066590
 C        -1.532889        -0.942137         0.167502
 H        -4.509899        -1.401095         1.710008
 H        -2.653254        -0.212029         3.313654
 H        -1.275104        -1.346649         2.785555
 H        -0.860074         1.535594         2.389596
 H        -3.518892         1.577262         1.771875
 H        -2.588735         1.377402        -1.102032
 H        -1.774321         2.484546         0.038791
 H         0.404030         1.523205        -0.553478
 H        -1.930693        -1.352352        -0.844111
 H        -1.049256        -1.833166         0.597670
