19
Iteration:  3532charge 0 multiplicity 1
 O        -3.866925        -1.558469         1.193358
 C        -2.726160        -0.697460         1.107617
 C        -1.949907        -0.520477         2.450132
 C        -1.475056         0.841753         1.835230
 C        -2.754503         1.035861         0.990726
 C        -1.964568         1.450482        -0.212816
 C        -0.904187         0.475678         0.327900
 O         0.427291         0.664041         0.025728
 C        -1.640737        -0.869375         0.084036
 H        -4.537803        -0.968833         0.796706
 H        -2.620265        -0.303913         3.254598
 H        -1.211536        -1.311928         2.644328
 H        -0.880628         1.579934         2.283333
 H        -3.600283         1.480258         1.560474
 H        -2.344624         1.211422        -1.226621
 H        -1.578630         2.445975        -0.180704
 H         1.074136         0.739268         0.778089
 H        -2.107696        -0.890857        -0.949139
 H        -0.929039        -1.756684         0.213955
