19
Iteration:  4178charge 0 multiplicity 1
 O        -3.830182        -1.410458         1.197957
 C        -2.681380        -0.567964         1.025024
 C        -1.842980        -0.643148         2.346631
 C        -1.545043         0.764816         1.907479
 C        -2.795618         0.919651         1.054811
 C        -2.000926         1.549644        -0.102984
 C        -0.975446         0.502717         0.323965
 O         0.441780         0.633774         0.174903
 C        -1.610140        -0.889157        -0.079488
 H        -4.689896        -0.910372         1.019779
 H        -2.434067        -0.717701         3.241724
 H        -1.019055        -1.388758         2.494660
 H        -1.139230         1.647290         2.431811
 H        -3.768530         1.312244         1.323272
 H        -2.298326         1.535590        -1.181362
 H        -1.624515         2.466094         0.351237
 H         0.698584        -0.181125        -0.364906
 H        -1.857667        -0.682728        -1.168318
 H        -0.982961        -1.772771        -0.134186
