19
Iteration:  3148charge 0 multiplicity 1
 O        -3.795324        -1.538758         0.894372
 C        -2.746364        -0.555042         1.178635
 C        -2.090482        -0.476903         2.540902
 C        -1.286828         0.646741         1.911540
 C        -2.698958         1.010581         1.131919
 C        -2.013548         1.457045        -0.120896
 C        -0.924616         0.462923         0.304114
 O         0.378308         0.707689        -0.128314
 C        -1.647489        -0.878611         0.209512
 H        -3.960744        -2.052358         1.738003
 H        -2.792083        -0.037049         3.292247
 H        -1.846394        -1.433843         2.961392
 H        -0.651002         1.353395         2.461930
 H        -3.541543         1.573099         1.485632
 H        -2.447024         1.140253        -1.117213
 H        -1.555059         2.490442        -0.244587
 H         0.448391         1.359189        -0.851579
 H        -1.987366        -1.052072        -0.753377
 H        -0.843961        -1.529564         0.566920
