19
Iteration:  1788charge 0 multiplicity 1
 O        -3.903282        -1.374557         1.114720
 C        -2.707274        -0.667993         1.201696
 C        -1.912846        -0.637296         2.504277
 C        -1.410410         0.720317         1.833984
 C        -2.811867         0.834265         1.099552
 C        -2.056124         1.466216        -0.169776
 C        -0.893998         0.528658         0.320589
 O         0.412630         0.719050        -0.146445
 C        -1.532081        -0.892361         0.123584
 H        -4.308194        -1.075289         0.316385
 H        -2.510749        -0.223536         3.346773
 H        -1.292194        -1.454026         2.934518
 H        -0.913208         1.527746         2.356247
 H        -3.645656         1.344659         1.631181
 H        -2.432072         1.260292        -1.221954
 H        -1.904859         2.543429         0.043536
 H         0.711450         1.591798         0.197064
 H        -1.891730        -1.041637        -0.941726
 H        -0.817934        -1.696011         0.549007
