19
Iteration:  4841charge 0 multiplicity 1
 O        -3.793337        -1.500015         1.071669
 C        -2.724814        -0.598496         1.149300
 C        -1.950421        -0.508265         2.512094
 C        -1.405852         0.764137         1.896574
 C        -2.776895         0.991441         1.098211
 C        -1.985978         1.486124        -0.234138
 C        -0.913645         0.464214         0.305700
 O         0.425773         0.655610         0.104295
 C        -1.697081        -0.886805         0.084576
 H        -4.294115        -1.399106         0.214937
 H        -2.576760        -0.302975         3.347122
 H        -1.252388        -1.257846         2.875339
 H        -0.846741         1.633131         2.371318
 H        -3.588120         1.596272         1.337382
 H        -2.357297         1.248078        -1.287967
 H        -1.654808         2.555995        -0.180563
 H         0.541110         0.257598        -0.823926
 H        -2.143391        -0.946727        -0.932969
 H        -1.236359        -1.904821         0.204157
