19
Iteration:  1891charge 0 multiplicity 1
 O        -3.907126        -1.310902         1.362124
 C        -2.697684        -0.665156         1.103398
 C        -1.784359        -0.673682         2.378300
 C        -1.473285         0.720140         1.798200
 C        -2.795629         0.911146         1.001881
 C        -2.020680         1.414522        -0.251433
 C        -0.977939         0.564165         0.288418
 O         0.438525         0.665287         0.130165
 C        -1.616808        -0.842828        -0.020675
 H        -4.132221        -2.017598         0.666261
 H        -2.338188        -0.834615         3.292143
 H        -0.920613        -1.344286         2.338096
 H        -1.242635         1.616362         2.420097
 H        -3.727471         1.384521         1.314016
 H        -2.340747         1.375590        -1.278089
 H        -1.888164         2.530815        -0.075329
 H         0.517728         1.524645         0.545857
 H        -1.806641        -0.852930        -1.084268
 H        -0.978321        -1.673697         0.092518
