19
Iteration:  1839charge 0 multiplicity 1
 O        -3.720052        -1.417378         0.667899
 C        -2.648318        -0.594871         1.260828
 C        -2.015879        -0.537682         2.699739
 C        -1.373894         0.730999         1.943545
 C        -2.792625         0.995570         1.166452
 C        -2.061717         1.479031        -0.076377
 C        -0.969594         0.531399         0.361013
 O         0.305887         0.548186        -0.331448
 C        -1.565106        -0.879140         0.307639
 H        -4.023754        -2.059217         1.363965
 H        -2.530166        -0.224581         3.631264
 H        -1.362241        -1.355956         2.957580
 H        -0.819967         1.448039         2.524562
 H        -3.612107         1.362943         1.735042
 H        -2.610166         1.389335        -1.008256
 H        -1.596927         2.454113        -0.049256
 H         0.360885         1.410346        -0.736727
 H        -2.031023        -1.137390        -0.615683
 H        -0.772008        -1.568985         0.513356
