19
Iteration:   839charge 0 multiplicity 1
 O        -3.940435        -1.420917         0.988227
 C        -2.678833        -0.647660         1.213045
 C        -1.873328        -0.526206         2.462477
 C        -1.368523         0.815435         1.859168
 C        -2.763787         0.989953         1.140125
 C        -2.162725         1.371689        -0.124713
 C        -0.864370         0.482379         0.343116
 O         0.369663         0.758219        -0.138040
 C        -1.545798        -0.935327         0.213419
 H        -3.720661        -1.690914         0.046723
 H        -2.572229        -0.282807         3.350398
 H        -1.090772        -1.297248         2.697610
 H        -0.859208         1.676611         2.495426
 H        -3.642949         1.467055         1.506891
 H        -2.653599         1.141125        -1.095191
 H        -1.891140         2.393413        -0.116522
 H         1.006036         0.105436         0.176227
 H        -2.083632        -1.099745        -0.774608
 H        -1.026422        -1.886175         0.501927
