19
Iteration:  2515charge 0 multiplicity 1
 O        -3.832676        -1.567421         1.085850
 C        -2.752657        -0.585959         1.144152
 C        -2.101198        -0.562146         2.570489
 C        -1.300221         0.664323         1.989901
 C        -2.789468         1.062561         1.099508
 C        -2.023814         1.460229        -0.150338
 C        -0.892122         0.535480         0.329668
 O         0.456482         0.673339        -0.236303
 C        -1.576092        -0.865272         0.164454
 H        -4.077260        -1.723758         0.197028
 H        -2.745665        -0.142770         3.381195
 H        -1.672081        -1.563731         2.919248
 H        -0.662083         1.408346         2.535758
 H        -3.606728         1.630272         1.580484
 H        -2.493290         1.309732        -1.171880
 H        -1.633784         2.515129        -0.297921
 H         0.521224         1.641479        -0.342043
 H        -2.019270        -0.923746        -0.883862
 H        -1.110716        -1.845440         0.390129
