19
Iteration:  1764
 O        -3.892844        -1.466051         1.334889
 C        -2.762962        -0.662303         1.081123
 C        -1.867016        -0.582896         2.319334
 C        -1.388274         0.767179         1.789919
 C        -2.752340         1.017344         1.128285
 C        -2.025384         1.512056        -0.214634
 C        -0.901122         0.416888         0.272411
 O         0.429076         0.750754         0.140008
 C        -1.673096        -0.957647        -0.051822
 H        -4.119275        -2.088850         0.590712
 H        -2.491905        -0.386551         3.234354
 H        -1.124462        -1.339176         2.620797
 H        -0.752758         1.484515         2.227157
 H        -3.659082         1.395233         1.472294
 H        -2.484058         1.287195        -1.212318
 H        -1.565309         2.478353        -0.206499
 H         0.408666         1.714715         0.377505
 H        -1.998032        -0.794535        -1.096721
 H        -1.102357        -1.916831         0.183975
