19
Iteration:  4164
 O        -3.880686        -1.408939         1.228550
 C        -2.661735        -0.811970         1.052485
 C        -1.925909        -0.606868         2.383083
 C        -1.505319         0.764846         1.850551
 C        -2.870090         0.924645         1.041906
 C        -1.958797         1.577375        -0.064526
 C        -0.874699         0.536275         0.389607
 O         0.490742         0.627820         0.088035
 C        -1.617683        -0.754035        -0.082047
 H        -4.398355        -1.070497         0.500326
 H        -2.715819        -0.660253         3.151702
 H        -1.073370        -1.289985         2.514264
 H        -0.970702         1.465614         2.431514
 H        -3.802049         1.316441         1.498823
 H        -2.323421         1.654140        -1.128770
 H        -1.738203         2.615092         0.081548
 H         0.797529        -0.117568        -0.402570
 H        -2.266202        -0.791846        -1.036319
 H        -1.045078        -1.667988         0.157050
