19
Iteration:   281
 O        -3.890899        -1.367386         0.925529
 C        -2.682335        -0.611801         1.197319
 C        -1.944182        -0.639442         2.608261
 C        -1.321958         0.707902         1.965509
 C        -2.710537         0.926290         1.200302
 C        -2.084568         1.416465        -0.068463
 C        -0.929575         0.490764         0.338168
 O         0.271301         0.750805        -0.316329
 C        -1.493644        -0.910406         0.193104
 H        -4.183154        -1.370366        -0.061829
 H        -2.543109        -0.345489         3.491507
 H        -1.409722        -1.589448         2.954025
 H        -0.728735         1.363000         2.584877
 H        -3.513698         1.411279         1.569036
 H        -2.564142         1.148380        -1.109582
 H        -1.859928         2.459336        -0.097913
 H         0.521370         1.696076        -0.433211
 H        -1.740034        -1.275365        -0.883629
 H        -0.817571        -1.671081         0.697613
