19
Iteration:   289
 O        -3.841819        -1.391922         0.850947
 C        -2.687976        -0.615608         1.245544
 C        -2.017505        -0.637751         2.627793
 C        -1.315459         0.700039         1.924516
 C        -2.704953         0.961033         1.262456
 C        -2.031331         1.380165        -0.075702
 C        -0.903511         0.445440         0.314254
 O         0.229625         0.742238        -0.398747
 C        -1.480623        -0.875180         0.281994
 H        -4.042684        -1.153819        -0.113792
 H        -2.641172        -0.186601         3.411508
 H        -1.485762        -1.541609         2.920927
 H        -0.699385         1.441261         2.528945
 H        -3.604391         1.364491         1.775968
 H        -2.631714         1.208482        -0.913337
 H        -1.799747         2.453987         0.071876
 H         0.236875         1.705815        -0.174277
 H        -1.852568        -1.079546        -0.716636
 H        -0.738855        -1.602892         0.664275
