19
Iteration:  4770charge 0 multiplicity 1
 O        -3.932277        -1.408287         1.163877
 C        -2.690003        -0.609673         1.106266
 C        -1.940595        -0.552584         2.467002
 C        -1.408379         0.746971         1.884518
 C        -2.731127         0.983923         1.031801
 C        -1.932763         1.419228        -0.207750
 C        -0.927197         0.498484         0.343476
 O         0.346238         0.725299         0.099834
 C        -1.571823        -0.955955         0.033536
 H        -4.460040        -1.633905         0.352778
 H        -2.680627        -0.354782         3.302221
 H        -1.236625        -1.345144         2.834419
 H        -0.891829         1.467383         2.485636
 H        -3.639642         1.477555         1.539931
 H        -2.234773         1.220389        -1.234597
 H        -1.673146         2.495513        -0.088891
 H         0.734232         0.501225        -0.795601
 H        -1.898443        -0.909194        -0.995154
 H        -0.972407        -1.833455         0.160011
