19
Iteration:  4995charge 0 multiplicity 1
 O        -3.886313        -1.547236         0.976151
 C        -2.729024        -0.664713         1.158199
 C        -1.896447        -0.592851         2.516027
 C        -1.381626         0.705533         1.859884
 C        -2.828443         0.952631         1.081285
 C        -2.008308         1.545580        -0.151266
 C        -0.847883         0.591796         0.364945
 O         0.529263         0.572621         0.045713
 C        -1.715841        -0.755825         0.061571
 H        -4.571402        -0.984410         1.324639
 H        -2.504821        -0.348508         3.381187
 H        -1.234154        -1.484715         2.670115
 H        -0.908781         1.530858         2.477335
 H        -3.661479         1.435404         1.624796
 H        -2.536233         1.382539        -1.201018
 H        -1.994399         2.667680        -0.138762
 H         0.617027         0.924841        -0.826445
 H        -2.256510        -0.751723        -0.900722
 H        -1.086405        -1.657256         0.226464
