19
Iteration:  2271
 O        -3.797253        -1.506770         1.214960
 C        -2.721895        -0.592756         1.146022
 C        -1.821487        -0.536367         2.427376
 C        -1.519679         0.886096         1.833392
 C        -2.882579         0.934639         0.945326
 C        -2.014240         1.493899        -0.215222
 C        -0.945319         0.562968         0.354286
 O         0.413889         0.440375         0.003156
 C        -1.580208        -0.807784         0.131143
 H        -4.219922        -1.654780         0.312743
 H        -2.462051        -0.352064         3.316910
 H        -0.971419        -1.229765         2.628811
 H        -1.155506         1.679696         2.399938
 H        -3.745937         1.432773         1.260006
 H        -2.450504         1.251054        -1.217041
 H        -2.017228         2.611636        -0.036788
 H         0.828657         1.127369         0.551476
 H        -1.737045        -0.996229        -0.962624
 H        -0.861029        -1.587325         0.466319
