19
Iteration:   967
 O        -3.953957        -1.252033         0.908793
 C        -2.649418        -0.632842         1.225753
 C        -1.943532        -0.587333         2.594194
 C        -1.285011         0.720131         1.920977
 C        -2.681804         0.848597         1.161928
 C        -2.214492         1.367637        -0.133889
 C        -0.935486         0.518058         0.292592
 O         0.329320         0.696072        -0.217648
 C        -1.404851        -0.945019         0.276985
 H        -3.995275        -1.046963        -0.014450
 H        -2.563025        -0.292805         3.464279
 H        -1.346187        -1.487488         2.795289
 H        -0.836231         1.630143         2.536138
 H        -3.533610         1.103246         1.726862
 H        -2.813540         0.947023        -1.016928
 H        -2.090084         2.476041        -0.180258
 H         0.218286         1.548815        -0.719760
 H        -1.756344        -1.248308        -0.710573
 H        -0.664801        -1.686714         0.669441
