19
Iteration:  4011
 O        -3.916167        -1.511254         1.053235
 C        -2.678962        -0.675856         1.114924
 C        -1.874174        -0.584131         2.429373
 C        -1.490749         0.788956         1.869546
 C        -2.819100         0.963163         1.023357
 C        -1.991631         1.556916        -0.061569
 C        -0.878178         0.611833         0.287208
 O         0.514689         0.591983         0.073103
 C        -1.702345        -0.768295        -0.033855
 H        -4.104788        -1.645783         2.033766
 H        -2.580591        -0.458225         3.311149
 H        -1.093364        -1.363544         2.674444
 H        -1.088161         1.435354         2.609623
 H        -3.743668         1.391622         1.427802
 H        -2.363590         1.408027        -1.147630
 H        -1.744486         2.624336         0.109607
 H         0.738464        -0.396899         0.088874
 H        -2.039292        -0.786424        -1.117458
 H        -1.083991        -1.688192         0.107021
