19
Iteration:  4739charge 0 multiplicity 1
 O        -3.928674        -1.426257         0.950857
 C        -2.753817        -0.545746         1.131388
 C        -1.999633        -0.565989         2.548509
 C        -1.338789         0.731940         1.800045
 C        -2.787461         1.026708         1.160241
 C        -2.079572         1.404327        -0.138201
 C        -0.882225         0.472573         0.231062
 O         0.453468         0.704899        -0.006187
 C        -1.523540        -0.972886         0.274138
 H        -4.014419        -1.427480         0.004147
 H        -2.507124        -0.097563         3.451134
 H        -1.477106        -1.489499         2.798058
 H        -0.859059         1.460348         2.397358
 H        -3.394696         1.644842         1.895399
 H        -2.502738         1.148664        -1.136884
 H        -1.965806         2.542506         0.075956
 H         0.616751         0.592013        -0.921937
 H        -1.830953        -1.191287        -0.732314
 H        -0.833318        -1.732577         0.643336
