19
Iteration:   117charge 0 multiplicity 1
 O        -3.986368        -1.139269         0.983328
 C        -2.709635        -0.609839         1.186198
 C        -1.838396        -0.578645         2.562100
 C        -1.307150         0.635923         1.818213
 C        -2.766400         0.903887         1.144475
 C        -2.132296         1.221502        -0.240048
 C        -0.935522         0.434580         0.312877
 O         0.341315         0.952678         0.001018
 C        -1.470605        -0.996931         0.159962
 H        -4.012531        -2.049459         1.178258
 H        -2.437938        -0.395156         3.483740
 H        -1.118021        -1.381063         2.899301
 H        -0.783652         1.364716         2.496148
 H        -3.653803         1.236369         1.592940
 H        -2.648795         0.738594        -1.177895
 H        -1.874213         2.187821        -0.622398
 H         0.415436         0.828728        -0.954273
 H        -1.674802        -1.400375        -0.861082
 H        -0.727306        -1.728723         0.565257
