19
Iteration:  1924
 O        -3.824380        -1.515041         1.225593
 C        -2.676975        -0.656390         1.099492
 C        -1.740155        -0.479933         2.372953
 C        -1.446908         0.865414         1.739565
 C        -2.842267         0.973787         1.055854
 C        -2.156409         1.450180        -0.192173
 C        -0.960727         0.526515         0.229545
 O         0.486671         0.562421         0.204045
 C        -1.684467        -0.905871        -0.028739
 H        -4.566090        -0.903674         0.947739
 H        -2.224601        -0.510758         3.339602
 H        -0.833266        -1.082948         2.368766
 H        -1.076446         1.776734         2.244990
 H        -3.720349         1.467351         1.437183
 H        -2.619715         1.302230        -1.154261
 H        -1.902879         2.516712         0.087475
 H         0.740047         0.393479         1.131742
 H        -1.996943        -0.785077        -1.059276
 H        -1.048325        -1.707762         0.139123
