19
Iteration:  4449charge 0 multiplicity 1
 O        -3.957047        -1.406902         1.027540
 C        -2.705294        -0.675938         1.089071
 C        -1.973459        -0.466564         2.455493
 C        -1.434508         0.796296         1.906926
 C        -2.771018         0.964246         1.148385
 C        -1.985983         1.431303        -0.127153
 C        -0.940163         0.529363         0.369870
 O         0.448145         0.643625        -0.055004
 C        -1.496476        -0.884338         0.162290
 H        -4.006329        -1.714788         0.121077
 H        -2.787615        -0.358103         3.182562
 H        -1.345650        -1.224541         3.018115
 H        -0.880038         1.538098         2.454504
 H        -3.726900         1.212035         1.571494
 H        -2.479635         1.369534        -1.177708
 H        -1.605611         2.447255        -0.055160
 H         0.495906        -0.119675        -0.665381
 H        -1.845392        -1.110818        -0.849623
 H        -0.745098        -1.632885         0.459445
