19
Iteration:  4186
 O        -3.852467        -1.446265         1.113236
 C        -2.719097        -0.605150         1.069488
 C        -1.763835        -0.635232         2.332854
 C        -1.490888         0.748761         1.867036
 C        -2.766911         1.006362         0.992108
 C        -1.975866         1.531873        -0.123928
 C        -0.956275         0.449286         0.386217
 O         0.369433         0.651772         0.215726
 C        -1.642886        -0.853323        -0.051255
 H        -4.635023        -0.846231         1.290109
 H        -2.380520        -0.663830         3.246585
 H        -0.992148        -1.422739         2.289673
 H        -1.030093         1.499843         2.450725
 H        -3.572897         1.400104         1.645794
 H        -2.581498         1.567784        -1.070372
 H        -1.856398         2.610372         0.027147
 H         0.790023        -0.097556        -0.311830
 H        -1.973206        -0.849325        -1.174767
 H        -0.999685        -1.679672         0.352249
