19
Iteration:  3498charge 0 multiplicity 1
 O        -3.913404        -1.356195         1.058270
 C        -2.696946        -0.645526         1.150635
 C        -1.942413        -0.467542         2.455890
 C        -1.362633         0.745744         1.759411
 C        -2.764819         0.928059         1.121740
 C        -2.080287         1.286711        -0.175575
 C        -0.907366         0.423159         0.298544
 O         0.393678         0.775727         0.035852
 C        -1.568664        -0.880603         0.165132
 H        -4.304100        -1.054359         0.185877
 H        -2.465494        -0.236828         3.397120
 H        -1.399921        -1.401257         2.666418
 H        -0.881193         1.609620         2.136167
 H        -3.665350         1.426952         1.622347
 H        -2.537846         1.107771        -1.159190
 H        -1.797064         2.325397        -0.165023
 H         1.178276         0.282542         0.440674
 H        -1.739573        -1.197588        -0.916071
 H        -0.948930        -1.731095         0.651055
