19
Iteration:  1680
 O        -3.865355        -1.333934         0.903550
 C        -2.754463        -0.614172         1.224243
 C        -2.018993        -0.521761         2.567339
 C        -1.284968         0.734603         1.897803
 C        -2.761205         0.954547         1.141008
 C        -2.108233         1.334758        -0.169245
 C        -0.909017         0.467672         0.349109
 O         0.358127         0.736870        -0.269384
 C        -1.527322        -0.943194         0.315098
 H        -3.587849        -2.260179         0.869179
 H        -2.646310        -0.150803         3.392454
 H        -1.417666        -1.384826         2.900205
 H        -0.892016         1.485175         2.577615
 H        -3.515831         1.561673         1.666824
 H        -2.344614         0.953513        -1.201099
 H        -1.806272         2.394879        -0.280590
 H         0.652242         1.638757        -0.422621
 H        -1.876735        -1.383347        -0.633211
 H        -0.835107        -1.727784         0.742849
