19
Iteration:  3436
 O        -3.780227        -1.590434         1.024566
 C        -2.717526        -0.671423         1.123231
 C        -2.106699        -0.383481         2.546617
 C        -1.351899         0.785318         1.885595
 C        -2.775479         1.045528         1.138003
 C        -2.001067         1.553003        -0.095864
 C        -0.868589         0.435089         0.425368
 O         0.372170         0.617305        -0.218226
 C        -1.603950        -0.838263         0.151482
 H        -3.919386        -2.020425         0.137772
 H        -2.950650        -0.055615         3.087365
 H        -1.544429        -1.235536         2.892630
 H        -0.965877         1.578465         2.457887
 H        -3.651434         1.524745         1.528310
 H        -2.376115         1.525093        -1.177094
 H        -1.723287         2.595659         0.084810
 H         0.924550        -0.232490        -0.057425
 H        -1.820054        -1.054364        -0.857824
 H        -1.090661        -1.645785         0.580608
