19
Iteration:  4143charge 0 multiplicity 1
 O        -3.934549        -1.512986         1.084955
 C        -2.844541        -0.617233         1.092706
 C        -1.947508        -0.616695         2.489767
 C        -1.343039         0.709689         1.859569
 C        -2.715647         0.935395         1.146332
 C        -1.988295         1.569356        -0.107296
 C        -0.907813         0.580947         0.334788
 O         0.443110         0.677756         0.018179
 C        -1.584426        -0.818705         0.039986
 H        -4.097243        -1.930317         0.178999
 H        -2.576894        -0.277366         3.319260
 H        -1.306049        -1.486543         2.666277
 H        -1.005311         1.523458         2.444264
 H        -3.561195         1.520693         1.500950
 H        -2.283831         1.679101        -1.184761
 H        -1.650202         2.574082         0.067988
 H         0.734226        -0.167592        -0.445926
 H        -2.119036        -0.689352        -0.987378
 H        -1.047675        -1.774498         0.202455
