19
Iteration:  4384charge 0 multiplicity 1
 O        -3.903893        -1.444953         1.102877
 C        -2.741150        -0.529832         1.078330
 C        -2.033008        -0.485476         2.448161
 C        -1.402479         0.749324         1.883039
 C        -2.756997         0.966257         1.164256
 C        -1.997161         1.466676        -0.161045
 C        -0.903880         0.459929         0.312789
 O         0.450204         0.700620        -0.056242
 C        -1.563874        -0.957373         0.095854
 H        -4.055296        -1.722887         0.176401
 H        -2.754763        -0.429315         3.243712
 H        -1.426576        -1.362058         2.798753
 H        -1.063006         1.625165         2.408378
 H        -3.634295         1.357883         1.629152
 H        -2.482504         1.237073        -1.177854
 H        -1.589191         2.451411        -0.014771
 H         0.930098         0.255640         0.626332
 H        -1.671109        -1.170684        -1.044627
 H        -0.964040        -1.840560         0.424204
