19
Iteration:  1065
 O        -3.821659        -1.501955         1.268293
 C        -2.708350        -0.694238         1.113857
 C        -1.610553        -0.624557         2.192265
 C        -1.444816         0.796212         1.722093
 C        -2.816916         1.000073         1.200953
 C        -2.079886         1.577249        -0.191031
 C        -0.972404         0.550540         0.290162
 O         0.403733         0.524941         0.296184
 C        -1.777417        -0.798526        -0.084718
 H        -4.501585        -1.277571         0.620768
 H        -2.130238        -0.708251         3.167590
 H        -0.746341        -1.249042         1.947727
 H        -0.747921         1.462068         2.341914
 H        -3.671098         1.455184         1.584587
 H        -2.691764         1.079558        -0.947799
 H        -1.827431         2.630028        -0.367418
 H         0.681255         1.485121         0.382346
 H        -2.450601        -0.744457        -0.956151
 H        -1.052122        -1.673015        -0.038620
