19
Iteration:  2671
 O        -3.828577        -1.333283         0.796440
 C        -2.658616        -0.659566         1.219306
 C        -1.913714        -0.590406         2.654234
 C        -1.355293         0.748983         1.921094
 C        -2.690462         1.022675         1.214585
 C        -2.192582         1.498370        -0.142709
 C        -0.914780         0.488691         0.404165
 O         0.364471         0.593445        -0.163985
 C        -1.626988        -0.912812         0.142122
 H        -3.699155        -2.254391         0.424294
 H        -2.535687        -0.362597         3.568066
 H        -1.157521        -1.370718         2.879256
 H        -0.901821         1.507122         2.512101
 H        -3.595693         1.395793         1.549743
 H        -2.734215         1.015108        -1.011620
 H        -1.878916         2.574249        -0.212697
 H         0.390256         1.505060        -0.567864
 H        -2.078605        -1.036707        -0.859043
 H        -0.903491        -1.765934         0.314578
