19
Iteration:    57
 O        -3.612461        -1.788424         1.159316
 C        -2.749779        -0.695516         1.160602
 C        -1.981987        -0.493800         2.399976
 C        -1.522413         0.919112         1.855414
 C        -2.749264         1.100833         1.030221
 C        -1.910312         1.653200        -0.165894
 C        -0.943175         0.594337         0.357541
 O         0.308619         0.486157        -0.099472
 C        -1.690366        -0.769659         0.090365
 H        -4.295303        -1.596105         1.807946
 H        -2.615819        -0.646314         3.308515
 H        -1.147237        -1.203509         2.486146
 H        -1.134247         1.686551         2.444734
 H        -3.740699         1.613466         1.364636
 H        -2.191911         1.659655        -1.159681
 H        -1.553426         2.699709         0.220617
 H         0.571027        -0.355645         0.342262
 H        -2.160286        -0.554694        -0.867686
 H        -1.048884        -1.659533         0.022645
