19
Iteration:  1657
 O        -4.106849        -1.213005         1.052013
 C        -2.696185        -0.669342         1.202486
 C        -1.981036        -0.565640         2.546580
 C        -1.398613         0.741294         1.937657
 C        -2.675946         0.925776         1.096351
 C        -2.065465         1.228340        -0.220683
 C        -0.825506         0.374046         0.362192
 O         0.371449         0.942858        -0.215428
 C        -1.371104        -1.000006         0.245304
 H        -3.936708        -2.149436         0.886583
 H        -2.746770        -0.391895         3.324578
 H        -1.442072        -1.495201         2.778763
 H        -0.928667         1.504686         2.453783
 H        -3.580842         1.331384         1.440767
 H        -2.559946         0.830650        -1.170431
 H        -1.682434         2.233213        -0.454866
 H         0.301280         1.715289        -0.835471
 H        -1.591730        -1.323878        -0.801711
 H        -0.655136        -1.812926         0.629088
