19
Iteration:   660charge 0 multiplicity 1
 O        -3.937995        -1.262855         1.055667
 C        -2.652736        -0.687300         1.162582
 C        -1.836392        -0.617862         2.487746
 C        -1.368535         0.739899         1.776370
 C        -2.743922         0.839712         1.149841
 C        -2.181748         1.285596        -0.197291
 C        -0.947772         0.484083         0.310093
 O         0.421707         0.894905         0.027535
 C        -1.520137        -1.008821         0.132853
 H        -4.534813        -0.500971         0.842839
 H        -2.363352        -0.323937         3.380502
 H        -1.103116        -1.414691         2.776685
 H        -1.060874         1.574808         2.321217
 H        -3.657248         1.326199         1.666605
 H        -2.743453         1.071649        -1.056229
 H        -1.836613         2.352261        -0.170680
 H         0.582191         0.900998        -0.954885
 H        -1.941693        -1.211934        -0.850186
 H        -0.813390        -1.790024         0.523712
