19
Iteration:  3511
 O        -3.873108        -1.420639         1.075681
 C        -2.749761        -0.586654         1.174209
 C        -1.905106        -0.546587         2.537673
 C        -1.338050         0.729575         1.805570
 C        -2.762440         0.953222         1.045959
 C        -2.096511         1.408684        -0.292603
 C        -0.932048         0.471511         0.296169
 O         0.472065         0.786682         0.056179
 C        -1.619053        -0.973576         0.107989
 H        -4.498291        -1.104151         0.420074
 H        -2.646536        -0.209251         3.253855
 H        -1.259887        -1.293466         2.990060
 H        -0.753968         1.444996         2.331959
 H        -3.467249         1.579414         1.620655
 H        -2.553213         0.944707        -1.206160
 H        -1.903706         2.463854        -0.306166
 H         0.746722         0.343934         0.848233
 H        -2.174589        -1.116559        -0.841930
 H        -0.983001        -1.861780         0.351037
