19
Iteration:  2339charge 0 multiplicity 1
 O        -3.930864        -1.376480         0.941667
 C        -2.713434        -0.670305         1.233449
 C        -1.898368        -0.537170         2.557434
 C        -1.366639         0.749305         1.817917
 C        -2.704961         1.029848         1.137209
 C        -2.124964         1.361488        -0.214959
 C        -0.930093         0.426600         0.405938
 O         0.340782         0.836873        -0.081694
 C        -1.470338        -0.990192         0.220903
 H        -4.155367        -1.224969         0.034196
 H        -2.565058        -0.124489         3.344633
 H        -1.321138        -1.462844         2.911723
 H        -0.845499         1.657495         2.308740
 H        -3.604425         1.623231         1.527054
 H        -2.651645         0.908411        -1.091161
 H        -1.805415         2.407680        -0.505536
 H         0.880795         0.133303        -0.462312
 H        -1.821909        -1.386468        -0.793531
 H        -0.917122        -1.805358         0.748988
