19
Iteration:  3676charge 0 multiplicity 1
 O        -3.873620        -1.443794         0.995817
 C        -2.744781        -0.601826         1.140098
 C        -1.935601        -0.591654         2.519135
 C        -1.448199         0.772299         1.860039
 C        -2.748070         1.059696         1.075472
 C        -2.035266         1.486814        -0.228094
 C        -0.927194         0.492193         0.326336
 O         0.412169         0.664111         0.055016
 C        -1.620004        -0.867854         0.087400
 H        -4.020038        -2.036966         1.792027
 H        -2.456032        -0.462224         3.457529
 H        -1.096832        -1.226456         2.765374
 H        -0.649134         1.358810         2.439493
 H        -3.708956         1.487093         1.419928
 H        -2.457696         1.104249        -1.147918
 H        -1.643804         2.435842        -0.104167
 H         0.996410        -0.025479        -0.355086
 H        -1.816201        -0.846218        -1.043482
 H        -1.013505        -1.781065         0.267895
