19
Iteration:  3068
 O        -3.867509        -1.581493         1.234877
 C        -2.735189        -0.609859         1.077012
 C        -1.885363        -0.523657         2.393516
 C        -1.421353         0.754744         1.779638
 C        -2.754971         1.046756         1.151617
 C        -2.129282         1.521996        -0.191978
 C        -0.958666         0.530404         0.233857
 O         0.446164         0.578054         0.103030
 C        -1.572245        -0.842749         0.004338
 H        -4.223717        -1.725530         0.308813
 H        -2.409562        -0.218362         3.295423
 H        -1.093617        -1.272988         2.584961
 H        -0.806221         1.456685         2.345194
 H        -3.642557         1.516729         1.530953
 H        -2.573971         1.422730        -1.228452
 H        -1.786813         2.620005        -0.078948
 H         0.941835         0.965282         0.854739
 H        -2.005394        -1.064953        -1.000031
 H        -0.926759        -1.665115         0.282864
