19
Iteration:   407
 O        -3.786351        -1.522879         1.286752
 C        -2.727378        -0.649606         1.105497
 C        -1.805344        -0.621939         2.289767
 C        -1.448060         0.774090         1.833112
 C        -2.826244         0.952437         1.105936
 C        -2.086886         1.508036        -0.125066
 C        -0.933595         0.549734         0.289003
 O         0.446273         0.581003         0.048935
 C        -1.672457        -0.777199        -0.068391
 H        -4.545914        -1.265991         0.689641
 H        -2.322466        -0.603377         3.264067
 H        -1.039510        -1.386116         2.298617
 H        -0.860761         1.598918         2.363375
 H        -3.801086         1.510346         1.578479
 H        -2.459809         1.605414        -1.163761
 H        -1.846207         2.540624         0.335879
 H         0.762118         1.188428         0.721620
 H        -2.213799        -0.800588        -1.019144
 H        -0.978183        -1.637345         0.078141
