19
Iteration:   348charge 0 multiplicity 1
 O        -3.836294        -1.438974         1.150203
 C        -2.714021        -0.648596         1.098762
 C        -1.822800        -0.671714         2.408021
 C        -1.435103         0.756959         1.877509
 C        -2.808893         0.940188         1.143084
 C        -2.061205         1.577292        -0.071834
 C        -0.898191         0.564861         0.416159
 O         0.392472         0.586449        -0.148258
 C        -1.629549        -0.840361         0.073461
 H        -4.024203        -1.633706         0.257409
 H        -2.421879        -0.551818         3.330679
 H        -1.089663        -1.512305         2.587261
 H        -1.040864         1.507439         2.531010
 H        -3.630860         1.345148         1.647860
 H        -2.453099         1.455629        -1.125818
 H        -2.027569         2.606396         0.102753
 H         0.538517         1.546880        -0.241972
 H        -2.019414        -0.991197        -0.999271
 H        -1.041305        -1.762144         0.214218
