19
Iteration:  1071charge 0 multiplicity 1
 O        -3.849384        -1.508706         1.253823
 C        -2.719238        -0.637550         1.152560
 C        -1.640393        -0.674382         2.256961
 C        -1.427729         0.755371         1.735348
 C        -2.825938         0.992341         1.183121
 C        -2.082296         1.546409        -0.218212
 C        -1.006968         0.566476         0.273133
 O         0.425821         0.562190         0.272329
 C        -1.705296        -0.785118        -0.072941
 H        -4.484341        -1.137734         0.656505
 H        -1.861213        -0.867747         3.317380
 H        -0.823457        -1.403630         2.045736
 H        -0.810397         1.418765         2.293916
 H        -3.663299         1.630010         1.642555
 H        -2.602004         1.246503        -1.166520
 H        -1.967226         2.645349        -0.344060
 H         0.676711         1.495581         0.208952
 H        -2.326067        -0.795970        -0.994585
 H        -1.216671        -1.740730        -0.107689
