19
Iteration:  1836charge 0 multiplicity 1
 O        -3.688320        -1.401862         0.648682
 C        -2.652141        -0.594977         1.235144
 C        -1.992764        -0.518712         2.687594
 C        -1.375658         0.745627         1.953045
 C        -2.791729         1.015315         1.206462
 C        -2.076482         1.466289        -0.064390
 C        -0.992785         0.508872         0.367867
 O         0.297080         0.528199        -0.355635
 C        -1.542000        -0.887966         0.317804
 H        -4.168710        -1.957538         1.375934
 H        -2.577633        -0.329874         3.587237
 H        -1.362172        -1.380220         2.929938
 H        -0.919372         1.541186         2.650467
 H        -3.781950         1.293395         1.727633
 H        -2.579394         1.260403        -1.013705
 H        -1.558043         2.497579        -0.034818
 H         0.386241         1.430140        -0.720399
 H        -2.009312        -1.077883        -0.638626
 H        -0.833583        -1.596466         0.656326
