19
Iteration:  1091charge 0 multiplicity 1
 O        -3.873101        -1.443402         1.191339
 C        -2.735167        -0.658693         1.115489
 C        -1.780865        -0.673011         2.390921
 C        -1.381261         0.704522         1.819374
 C        -2.781834         0.880177         1.088266
 C        -2.113284         1.519212        -0.096273
 C        -0.917951         0.536194         0.362066
 O         0.441861         0.654976        -0.009119
 C        -1.662828        -0.792790         0.012288
 H        -4.596129        -1.106152         0.673152
 H        -2.430413        -0.623735         3.273691
 H        -1.025476        -1.473640         2.469428
 H        -0.913955         1.529929         2.473149
 H        -3.675330         1.396429         1.577777
 H        -2.587582         1.484717        -1.133470
 H        -1.804470         2.566251         0.132367
 H         0.620956         1.617849        -0.178503
 H        -2.004881        -0.867192        -1.021261
 H        -0.951925        -1.589045         0.191353
