19
Iteration:  2607
 O        -3.783934        -1.506502         1.145017
 C        -2.732523        -0.641535         1.155965
 C        -1.999583        -0.561182         2.501121
 C        -1.380193         0.700014         1.787507
 C        -2.730916         0.971663         1.089758
 C        -1.986678         1.481996        -0.118337
 C        -0.950179         0.490810         0.249745
 O         0.415366         0.691400        -0.067056
 C        -1.677467        -0.848404         0.084085
 H        -4.417906        -1.275513         0.401337
 H        -2.622609        -0.215037         3.346964
 H        -1.385586        -1.428804         2.745660
 H        -0.837606         1.401660         2.406702
 H        -3.616748         1.377439         1.575062
 H        -2.473226         1.480496        -1.081093
 H        -1.614804         2.478513         0.008558
 H         0.704165         1.329846         0.605302
 H        -2.144843        -1.058754        -0.876315
 H        -0.949769        -1.657515         0.292760
