19
Iteration:  2971
 O        -3.939962        -1.394868         0.934983
 C        -2.708092        -0.628529         1.174681
 C        -1.878698        -0.528283         2.561950
 C        -1.335455         0.720837         1.792653
 C        -2.694518         1.018097         1.184026
 C        -2.112276         1.340654        -0.173244
 C        -0.942621         0.451498         0.321548
 O         0.409566         0.773385        -0.028266
 C        -1.625523        -0.979672         0.171119
 H        -3.717927        -1.505958        -0.048080
 H        -2.504928        -0.258258         3.417154
 H        -1.247048        -1.400707         2.797575
 H        -0.814666         1.459278         2.424766
 H        -3.478056         1.292185         1.876951
 H        -2.727973         1.003096        -1.010937
 H        -1.776327         2.380655        -0.380613
 H         0.577505         1.748299         0.023281
 H        -1.967522        -1.171697        -0.814238
 H        -1.044023        -1.819489         0.486348
