19
Iteration:  3991
 O        -3.759256        -1.504436         0.979670
 C        -2.670670        -0.588834         1.053776
 C        -1.971251        -0.581284         2.417352
 C        -1.464020         0.806980         1.866697
 C        -2.800328         0.955386         1.094016
 C        -1.931315         1.594287        -0.085021
 C        -0.987878         0.513717         0.425833
 O         0.312688         0.559882        -0.026496
 C        -1.572987        -0.832333         0.135015
 H        -4.475789        -1.284561         1.628036
 H        -2.429219        -0.593775         3.424033
 H        -1.074342        -1.300861         2.583383
 H        -0.948235         1.639076         2.252666
 H        -3.658437         1.411687         1.600292
 H        -2.256928         1.512214        -1.213952
 H        -1.680644         2.592972         0.314569
 H         0.552393        -0.342164        -0.312507
 H        -1.837604        -0.672795        -0.989173
 H        -1.016086        -1.746266         0.237728
