19
Iteration:  3561charge 0 multiplicity 1
 O        -3.781097        -1.536939         1.202585
 C        -2.721351        -0.645511         1.064234
 C        -1.982170        -0.518393         2.449565
 C        -1.549551         0.860370         1.859056
 C        -2.839739         0.949371         0.915077
 C        -2.000981         1.622612        -0.132450
 C        -0.875140         0.539660         0.357778
 O         0.430018         0.456244        -0.082413
 C        -1.588470        -0.856456         0.145288
 H        -4.435433        -1.113925         0.560116
 H        -2.468682        -0.351642         3.457335
 H        -1.289797        -1.365894         2.707946
 H        -0.998547         1.645731         2.455895
 H        -3.761919         1.282821         1.460125
 H        -2.311558         1.610106        -1.168600
 H        -1.604567         2.568034         0.305600
 H         1.140752         0.839712         0.500749
 H        -1.853761        -1.113009        -0.894570
 H        -0.863048        -1.623176         0.458171
