19
Iteration:   885charge 0 multiplicity 1
 O        -3.661168        -1.726708         1.337931
 C        -2.782918        -0.741642         1.073147
 C        -2.010570        -0.470999         2.364765
 C        -1.463734         0.885074         1.822611
 C        -2.768554         1.062293         0.990526
 C        -1.998742         1.678593        -0.077202
 C        -0.963465         0.567398         0.295746
 O         0.484468         0.494542        -0.005791
 C        -1.709788        -0.765564         0.005151
 H        -4.357289        -1.823836         0.708581
 H        -2.764090        -0.313930         3.246528
 H        -1.229263        -1.288996         2.563824
 H        -0.901857         1.620745         2.344663
 H        -3.692266         1.437568         1.566031
 H        -2.503706         1.933809        -1.007275
 H        -1.702426         2.660045         0.431857
 H         0.658561        -0.439736        -0.065566
 H        -2.083268        -0.547135        -1.090536
 H        -0.966294        -1.595305        -0.029737
