19
Iteration:   362
 O        -3.881808        -1.486658         1.281509
 C        -2.716405        -0.632916         1.102755
 C        -1.799863        -0.614095         2.338343
 C        -1.375977         0.715276         1.837280
 C        -2.785206         0.948081         1.112345
 C        -2.064804         1.515337        -0.089723
 C        -0.978132         0.490693         0.301099
 O         0.441643         0.663723         0.060244
 C        -1.692033        -0.795460        -0.058979
 H        -4.231424        -1.927144         0.438760
 H        -2.394616        -0.673627         3.276285
 H        -0.998542        -1.346241         2.279276
 H        -0.756378         1.511565         2.361880
 H        -3.813066         1.439011         1.514540
 H        -2.531844         1.407423        -1.134905
 H        -1.593712         2.541403         0.092672
 H         0.705914         1.584656        -0.035148
 H        -2.039027        -0.650952        -1.112552
 H        -1.107394        -1.729232         0.020196
