19
Iteration:  3846
 O        -3.732975        -1.643130         0.995081
 C        -2.822667        -0.605842         1.127221
 C        -1.972612        -0.520381         2.417323
 C        -1.406185         0.840886         1.842059
 C        -2.848154         1.077055         1.037134
 C        -1.900522         1.595397        -0.078936
 C        -0.955028         0.481843         0.421267
 O         0.391977         0.520596        -0.064426
 C        -1.661172        -0.769634         0.140921
 H        -4.266914        -1.593266         1.789969
 H        -2.593353        -0.336552         3.281381
 H        -1.274286        -1.349852         2.499731
 H        -0.866721         1.506347         2.450067
 H        -3.728772         1.604639         1.435456
 H        -2.107608         1.589480        -1.161680
 H        -1.545642         2.650840         0.049142
 H         0.710201        -0.373498         0.086112
 H        -1.974707        -0.941453        -0.855965
 H        -0.852268        -1.473452         0.316408
