19
Iteration:  3104
 O        -3.879178        -1.339125         1.069821
 C        -2.652636        -0.701932         1.153004
 C        -1.763637        -0.572418         2.430597
 C        -1.517423         0.831106         1.881215
 C        -2.806160         0.828410         1.051353
 C        -2.018769         1.398082        -0.204235
 C        -0.943545         0.585690         0.387350
 O         0.354330         0.541362         0.015654
 C        -1.536855        -0.845573         0.051790
 H        -4.691071        -0.781206         1.059744
 H        -2.172727        -0.446393         3.449799
 H        -0.833087        -1.104913         2.518612
 H        -1.112507         1.580691         2.533682
 H        -3.796672         1.159142         1.267227
 H        -2.395841         1.325671        -1.245871
 H        -1.995518         2.471247         0.119010
 H         0.564610         1.495860         0.195182
 H        -2.045652        -0.922154        -0.846201
 H        -1.003600        -1.786731         0.239795
