19
Iteration:  1070
 O        -3.844340        -1.508707         1.257340
 C        -2.717986        -0.646161         1.147466
 C        -1.633452        -0.666511         2.244463
 C        -1.434873         0.761166         1.727254
 C        -2.823885         0.991014         1.189045
 C        -2.077092         1.554089        -0.212355
 C        -1.000944         0.565183         0.274926
 O         0.422216         0.557028         0.278688
 C        -1.714701        -0.787880        -0.075985
 H        -4.507090        -1.147489         0.633016
 H        -1.902083        -0.851237         3.302925
 H        -0.817516        -1.376215         2.025731
 H        -0.771403         1.436558         2.326825
 H        -3.685450         1.625932         1.636423
 H        -2.639803         1.199262        -1.151031
 H        -1.949849         2.641853        -0.363197
 H         0.665251         1.478523         0.235431
 H        -2.354061        -0.795717        -0.966692
 H        -1.197493        -1.726747        -0.103396
