19
Iteration:  2911charge 0 multiplicity 1
 O        -3.850644        -1.613076         1.228615
 C        -2.659045        -0.615607         1.039630
 C        -1.826228        -0.500111         2.358867
 C        -1.497835         0.892806         1.797977
 C        -2.858037         0.982971         1.003023
 C        -2.065038         1.580549        -0.081681
 C        -0.943866         0.603589         0.336804
 O         0.415865         0.413573         0.014902
 C        -1.559688        -0.831897         0.075284
 H        -4.541405        -1.339893         0.620094
 H        -2.468967        -0.475339         3.260978
 H        -1.038567        -1.266055         2.404529
 H        -1.040793         1.747593         2.280385
 H        -3.847839         1.305495         1.309830
 H        -2.526607         1.729628        -1.113324
 H        -1.811292         2.599881         0.380791
 H         0.904870         0.545797         0.832775
 H        -1.695035        -0.920941        -1.036016
 H        -0.811894        -1.575798         0.477780
