19
Iteration:  2561charge 0 multiplicity 1
 O        -3.826611        -1.425775         1.241725
 C        -2.715011        -0.644584         1.149869
 C        -1.664043        -0.585720         2.329189
 C        -1.448120         0.772379         1.805149
 C        -2.918092         0.916507         0.996262
 C        -2.139803         1.577305        -0.176629
 C        -1.001622         0.617450         0.320905
 O         0.424054         0.390521         0.148702
 C        -1.604316        -0.765930         0.017205
 H        -4.154582        -1.462358         0.333035
 H        -2.216557        -0.595298         3.306113
 H        -0.805896        -1.276600         2.338579
 H        -0.891221         1.482050         2.359148
 H        -3.816223         1.405762         1.128911
 H        -2.490778         1.643909        -1.226781
 H        -2.044214         2.629866         0.117731
 H         0.833179         1.193884         0.460048
 H        -1.944753        -1.032985        -1.006146
 H        -0.889551        -1.565207         0.323291
