19
Iteration:   435
 O        -3.837637        -1.489478         0.986099
 C        -2.665860        -0.686695         1.140465
 C        -1.878952        -0.574744         2.547976
 C        -1.386299         0.765980         2.006883
 C        -2.758242         0.944435         1.141671
 C        -2.108164         1.554180        -0.101681
 C        -0.927516         0.561062         0.378250
 O         0.295799         0.591085        -0.280548
 C        -1.565894        -0.823768         0.166198
 H        -4.318987        -1.296600         0.185002
 H        -2.471435        -0.392162         3.473008
 H        -1.109346        -1.363111         2.746852
 H        -0.819026         1.535183         2.484571
 H        -3.644796         1.183435         1.545303
 H        -2.557159         1.512492        -1.132598
 H        -1.884150         2.582055         0.082770
 H         0.991089         1.038389         0.207867
 H        -1.910737        -1.140360        -0.863686
 H        -0.869358        -1.657603         0.292671
