19
Iteration:  2270charge 0 multiplicity 1
 O        -3.789530        -1.509805         1.210488
 C        -2.719420        -0.587082         1.156880
 C        -1.819621        -0.535487         2.432287
 C        -1.523544         0.889312         1.822471
 C        -2.891280         0.940254         0.944730
 C        -2.014472         1.500884        -0.213193
 C        -0.954199         0.559008         0.351508
 O         0.421607         0.436037         0.007135
 C        -1.583008        -0.811132         0.126696
 H        -4.199289        -1.673086         0.324764
 H        -2.454525        -0.351303         3.320266
 H        -0.983407        -1.230819         2.610852
 H        -1.147768         1.663283         2.398242
 H        -3.748823         1.416141         1.289435
 H        -2.448188         1.262212        -1.224700
 H        -2.048649         2.616514        -0.055434
 H         0.864599         1.074856         0.575358
 H        -1.747673        -0.955845        -0.957134
 H        -0.883416        -1.602062         0.457163
