19
Iteration:  2949charge 0 multiplicity 1
 O        -3.911194        -1.429201         1.201367
 C        -2.773139        -0.645876         1.099854
 C        -1.969410        -0.602349         2.483359
 C        -1.378369         0.756705         1.846072
 C        -2.736294         0.930433         1.052072
 C        -1.966429         1.355269        -0.145710
 C        -0.879338         0.444924         0.334281
 O         0.420656         0.817473        -0.070051
 C        -1.593175        -0.883445         0.065642
 H        -4.287979        -1.689928         0.372412
 H        -2.685909        -0.317856         3.258749
 H        -1.398931        -1.494724         2.811526
 H        -0.846753         1.580663         2.385062
 H        -3.674062         1.471773         1.266431
 H        -2.286424         1.249721        -1.178138
 H        -1.778931         2.433926         0.031892
 H         0.774075         1.447891         0.573682
 H        -2.081472        -0.830108        -0.883977
 H        -1.079540        -1.814756         0.110449
