19
Iteration:   357charge 0 multiplicity 1
 O        -3.868513        -1.475925         1.241112
 C        -2.739216        -0.610166         1.091168
 C        -1.792999        -0.629024         2.356476
 C        -1.387563         0.709594         1.880102
 C        -2.796876         0.945089         1.112207
 C        -2.089263         1.560066        -0.076280
 C        -0.939675         0.501687         0.341122
 O         0.432260         0.636115        -0.013913
 C        -1.665530        -0.824105        -0.019949
 H        -4.124624        -1.817983         0.407007
 H        -2.384321        -0.625384         3.270078
 H        -0.992735        -1.416725         2.396344
 H        -0.901158         1.548631         2.315433
 H        -3.705321         1.273924         1.418548
 H        -2.401787         1.374809        -1.088086
 H        -1.763318         2.566355         0.063041
 H         0.609518         1.591540        -0.111797
 H        -2.030908        -0.621844        -1.033263
 H        -1.142999        -1.761109         0.193236
