19
Iteration:  3280charge 0 multiplicity 1
 O        -3.872419        -1.444269         1.043571
 C        -2.688366        -0.612938         1.074345
 C        -1.986348        -0.531151         2.483879
 C        -1.426181         0.800658         1.875264
 C        -2.838137         0.945103         1.074428
 C        -2.076280         1.567384        -0.036331
 C        -0.900074         0.535539         0.417627
 O         0.394242         0.565727        -0.151276
 C        -1.426262        -0.898815         0.165111
 H        -4.090027        -1.855788         0.164288
 H        -2.657266        -0.210196         3.310198
 H        -1.173187        -1.168517         2.813148
 H        -1.139477         1.728481         2.479415
 H        -3.765423         1.387102         1.630459
 H        -2.617404         1.459779        -1.049235
 H        -1.633023         2.578964         0.202278
 H         0.426995        -0.301411        -0.599301
 H        -1.625759        -1.111323        -0.850374
 H        -0.725443        -1.598935         0.642993
