19
Iteration:  1431charge 0 multiplicity 1
 O        -3.674748        -1.687778         1.068212
 C        -2.701856        -0.673960         1.156199
 C        -2.001767        -0.395304         2.507995
 C        -1.456337         0.855845         1.875936
 C        -2.824345         1.041522         1.052308
 C        -2.003832         1.590925        -0.184410
 C        -0.946604         0.545731         0.366743
 O         0.386876         0.537623        -0.149563
 C        -1.644540        -0.836001         0.113787
 H        -4.189132        -1.650758         1.929989
 H        -2.723987        -0.279599         3.295835
 H        -1.330197        -1.180375         2.875715
 H        -1.124869         1.717738         2.404268
 H        -3.505274         1.694963         1.621975
 H        -2.342192         1.381090        -1.178856
 H        -1.771048         2.631301        -0.053220
 H         0.817295        -0.305101         0.036245
 H        -1.965378        -0.902922        -0.914091
 H        -1.054377        -1.735404         0.282980
