19
Iteration:  3551
 O        -3.776282        -1.519402         1.211159
 C        -2.778422        -0.601995         1.089253
 C        -1.941902        -0.457125         2.424006
 C        -1.486767         0.783693         1.834691
 C        -2.881687         0.931438         1.018098
 C        -1.914738         1.525708        -0.138596
 C        -0.932021         0.502646         0.379725
 O         0.418119         0.523015        -0.065683
 C        -1.565835        -0.866603         0.065393
 H        -4.679732        -1.294166         0.833757
 H        -2.618997        -0.245260         3.277694
 H        -1.153507        -1.223064         2.464915
 H        -1.335473         1.689466         2.392932
 H        -3.898560         1.410103         1.123690
 H        -2.090735         1.710074        -1.178629
 H        -1.715553         2.534276         0.235277
 H         1.126262         0.724630         0.628991
 H        -1.558779        -0.911180        -1.045108
 H        -1.076707        -1.758904         0.540516
