19
Iteration:  1698
 O        -3.812456        -1.416289         0.888454
 C        -2.645702        -0.651026         1.192355
 C        -1.907762        -0.437193         2.620928
 C        -1.435022         0.857554         1.864845
 C        -2.752324         0.945141         1.149898
 C        -2.106747         1.479912        -0.122097
 C        -0.978361         0.498637         0.307147
 O         0.326635         0.469954        -0.187807
 C        -1.528615        -0.866951         0.197560
 H        -3.590827        -2.345693         0.841332
 H        -2.644126        -0.094999         3.387074
 H        -1.165160        -1.171126         3.012161
 H        -0.896494         1.662554         2.288388
 H        -3.656026         1.274312         1.565501
 H        -2.775895         1.368889        -1.014163
 H        -1.876455         2.529992         0.058472
 H         0.634086         1.316949         0.162594
 H        -1.913659        -1.054302        -0.847293
 H        -0.840616        -1.744143         0.469242
