19
Iteration:  4250charge 0 multiplicity 1
 O        -3.930036        -1.310829         0.890463
 C        -2.667190        -0.695118         1.168934
 C        -2.050105        -0.600777         2.475049
 C        -1.442012         0.792608         1.988643
 C        -2.755618         0.959791         1.145504
 C        -1.930659         1.513453        -0.084333
 C        -0.876353         0.482338         0.355388
 O         0.331247         0.634632        -0.132612
 C        -1.480432        -0.894886         0.154647
 H        -3.895027        -2.326652         0.989499
 H        -2.788281        -0.302365         3.271897
 H        -1.570882        -1.533342         2.808448
 H        -0.888268         1.408445         2.654871
 H        -3.709113         1.501617         1.545160
 H        -2.424202         1.358357        -1.078430
 H        -1.406033         2.491931         0.161784
 H         0.437719         0.887669        -1.092699
 H        -1.854962        -1.326384        -0.828648
 H        -0.646133        -1.503409         0.664503
