19
Iteration:   868charge 0 multiplicity 1
 O        -3.668504        -1.664250         1.187810
 C        -2.676267        -0.604489         1.146627
 C        -1.894158        -0.521053         2.485511
 C        -1.517494         0.791865         1.832837
 C        -2.883962         1.010844         1.073054
 C        -1.944587         1.664312        -0.140456
 C        -0.944189         0.577392         0.352853
 O         0.339808         0.481599        -0.080627
 C        -1.678938        -0.739896         0.028768
 H        -4.093254        -1.552418         0.357410
 H        -2.481318        -0.354957         3.348388
 H        -1.190564        -1.272497         2.789866
 H        -1.141128         1.670084         2.421076
 H        -3.759013         1.529869         1.459097
 H        -2.139177         1.596152        -1.232315
 H        -1.659351         2.726275         0.022040
 H         0.627183        -0.411740         0.119654
 H        -2.099468        -0.997722        -0.907886
 H        -1.077949        -1.644680         0.234011
