19
Iteration:  2775charge 0 multiplicity 1
 O        -3.829497        -1.477271         0.929923
 C        -2.763236        -0.620661         1.183704
 C        -1.877501        -0.611907         2.523401
 C        -1.357227         0.688408         1.758001
 C        -2.710128         1.066495         1.189087
 C        -2.109913         1.606546        -0.162909
 C        -1.046363         0.519490         0.237950
 O         0.407300         0.599667        -0.011136
 C        -1.630211        -0.885214         0.145503
 H        -3.627200        -2.449820         1.160510
 H        -2.484862        -0.364417         3.388954
 H        -1.277949        -1.511161         2.718256
 H        -0.780267         1.561844         2.246316
 H        -3.398995         1.638492         1.920405
 H        -2.695229         1.276917        -1.000238
 H        -1.731413         2.617917        -0.271830
 H         0.674803         1.319598         0.634995
 H        -1.926502        -1.203952        -0.870619
 H        -0.818657        -1.484245         0.536581
