19
Iteration:  1718
 O        -3.828207        -1.503038         1.082465
 C        -2.621321        -0.639470         1.147075
 C        -1.748116        -0.392521         2.487746
 C        -1.518440         0.859841         1.836751
 C        -2.919111         0.913297         1.073718
 C        -2.103490         1.581786        -0.141080
 C        -0.957090         0.629356         0.381703
 O         0.415343         0.322246        -0.022283
 C        -1.631495        -0.840874         0.006588
 H        -3.538848        -2.375207         0.867470
 H        -2.480506        -0.372892         3.298770
 H        -0.974890        -1.141520         2.648872
 H        -1.156582         1.820750         2.258452
 H        -3.783493         1.317448         1.601883
 H        -2.432291         1.573963        -1.156310
 H        -1.860396         2.584765         0.199272
 H         0.997732         1.077774         0.269687
 H        -2.032044        -0.826325        -0.992720
 H        -0.899662        -1.594857         0.203448
