19
Iteration:  1876
 O        -3.949360        -1.381283         1.243966
 C        -2.712525        -0.661856         1.080916
 C        -1.914014        -0.588911         2.365615
 C        -1.456390         0.768886         1.858736
 C        -2.817901         0.935730         1.061010
 C        -2.058171         1.489884        -0.131782
 C        -0.872205         0.462777         0.383227
 O         0.454869         0.702231        -0.033490
 C        -1.536495        -0.913428         0.018630
 H        -3.792825        -2.263822         0.926813
 H        -2.602912        -0.390748         3.217246
 H        -1.145929        -1.403475         2.505728
 H        -0.771590         1.475062         2.381106
 H        -3.733556         1.402270         1.535025
 H        -2.492828         1.237667        -1.130047
 H        -1.714279         2.515815         0.026408
 H         0.708029         1.649701        -0.095626
 H        -1.980722        -0.919209        -1.031758
 H        -0.904019        -1.835536         0.338939
