19
Iteration:  3364charge 0 multiplicity 1
 O        -3.974293        -1.275885         1.324873
 C        -2.684783        -0.729708         1.109538
 C        -1.925260        -0.704952         2.415127
 C        -1.530236         0.703982         1.790888
 C        -2.766834         0.894598         0.972042
 C        -2.041325         1.482029        -0.239938
 C        -0.938357         0.513686         0.379628
 O         0.446569         0.771277         0.043782
 C        -1.493396        -0.909766         0.007213
 H        -4.312931        -1.314538         0.424251
 H        -2.635851        -0.497466         3.274588
 H        -1.016145        -1.364781         2.557440
 H        -0.876554         1.555662         2.210295
 H        -3.618337         1.303140         1.494953
 H        -2.446805         1.457111        -1.213346
 H        -1.595226         2.501135        -0.126634
 H         1.043350         0.577234         0.813065
 H        -1.690219        -1.005483        -1.129174
 H        -0.605537        -1.615158         0.262884
