19
Iteration:   983
 O        -3.785683        -1.336477         0.933272
 C        -2.673802        -0.646509         1.234865
 C        -2.018189        -0.621151         2.579901
 C        -1.367791         0.691666         1.929582
 C        -2.707590         0.982958         1.246930
 C        -2.081297         1.365467        -0.149477
 C        -0.944018         0.473970         0.347172
 O         0.304783         0.756720        -0.390421
 C        -1.536731        -0.941391         0.292044
 H        -4.058479        -1.263761         0.044633
 H        -2.730638        -0.313286         3.365359
 H        -1.487811        -1.452831         3.056337
 H        -0.810762         1.350275         2.533046
 H        -3.559508         1.644601         1.626758
 H        -2.482374         1.163018        -1.124641
 H        -1.767008         2.417008        -0.206585
 H         0.506044         1.678780        -0.137949
 H        -1.795061        -1.385056        -0.686566
 H        -0.916917        -1.706070         0.735803
