19
Iteration:   817
 O        -3.990259        -1.162762         1.031578
 C        -2.715723        -0.686042         1.123943
 C        -1.960614        -0.576663         2.607249
 C        -1.354566         0.589812         1.841004
 C        -2.672350         0.841202         1.170303
 C        -2.115425         1.289501        -0.230307
 C        -0.972084         0.455771         0.282987
 O         0.356592         0.989296        -0.171950
 C        -1.444317        -0.951090         0.231425
 H        -4.026126        -1.987032         0.549615
 H        -2.687972        -0.283307         3.462086
 H        -1.356278        -1.505185         2.852649
 H        -0.681087         1.495569         2.236333
 H        -3.400035         1.356259         1.712484
 H        -2.529938         0.942941        -1.198676
 H        -1.787534         2.272345        -0.338459
 H         0.986014         0.443963         0.368839
 H        -1.619775        -1.381645        -0.814986
 H        -0.699043        -1.588977         0.762805
