19
Iteration:  1859
 O        -3.914091        -1.462750         0.955148
 C        -2.755272        -0.669538         1.164578
 C        -1.978696        -0.501186         2.529587
 C        -1.347077         0.737752         1.862273
 C        -2.708705         0.935754         1.190711
 C        -2.024350         1.490007        -0.085717
 C        -0.926265         0.513560         0.310601
 O         0.401280         0.649959        -0.179126
 C        -1.548456        -0.875877         0.157173
 H        -3.700940        -2.356106         1.152987
 H        -2.734131        -0.223155         3.266405
 H        -1.459153        -1.328523         2.995358
 H        -1.017165         1.595793         2.468621
 H        -3.569272         1.450569         1.631430
 H        -2.406593         1.370315        -1.096875
 H        -1.838418         2.580888         0.164992
 H         0.441938         1.557465        -0.573180
 H        -1.840745        -1.044447        -0.859075
 H        -0.955265        -1.649326         0.546549
