19
Iteration:  3773charge 0 multiplicity 1
 O        -3.960690        -1.365446         0.869025
 C        -2.765779        -0.644295         1.254672
 C        -1.923823        -0.628685         2.529187
 C        -1.391876         0.696786         1.851952
 C        -2.676523         1.015111         1.192831
 C        -2.005402         1.331338        -0.232283
 C        -0.897528         0.443036         0.279755
 O         0.380030         0.900737        -0.083066
 C        -1.568477        -0.956763         0.225427
 H        -4.704467        -0.731458         1.101702
 H        -2.407372        -0.350639         3.485846
 H        -1.229845        -1.552479         2.588542
 H        -0.584904         1.406718         2.195874
 H        -3.584166         1.596622         1.460765
 H        -2.629560         0.912956        -1.112257
 H        -1.754453         2.392209        -0.337022
 H         0.984895         0.361312         0.560228
 H        -1.840185        -1.389531        -0.817816
 H        -0.960679        -1.761538         0.743260
