19
Iteration:   428charge 0 multiplicity 1
 O        -3.833332        -1.505677         1.072461
 C        -2.684363        -0.689733         1.089493
 C        -1.815234        -0.567582         2.503221
 C        -1.444501         0.775684         1.901868
 C        -2.811296         0.927131         1.131412
 C        -2.062482         1.571917        -0.079627
 C        -0.924226         0.579189         0.424203
 O         0.316567         0.562250        -0.216487
 C        -1.580481        -0.827032         0.077397
 H        -4.349166        -1.188979         0.357153
 H        -2.478738        -0.561950         3.400225
 H        -1.004607        -1.280893         2.667447
 H        -0.960653         1.632393         2.481828
 H        -3.753555         1.283301         1.777267
 H        -2.598988         1.308755        -1.002197
 H        -1.699881         2.621900        -0.046670
 H         0.986411         0.958631         0.387458
 H        -1.865881        -0.766338        -0.974359
 H        -0.889649        -1.637279         0.348022
