19
Iteration:  4503charge 0 multiplicity 1
 O        -3.853125        -1.495833         1.217456
 C        -2.746492        -0.674996         1.022816
 C        -1.863217        -0.455498         2.439635
 C        -1.431449         0.841916         1.829835
 C        -2.723170         1.021415         1.033057
 C        -1.955685         1.501227        -0.180117
 C        -0.934726         0.483281         0.396564
 O         0.373219         0.564863         0.240007
 C        -1.665933        -0.909744        -0.100727
 H        -4.340779        -1.294849         0.386831
 H        -2.645185        -0.516790         3.263681
 H        -0.966862        -1.189369         2.668159
 H        -1.070937         1.747549         2.288044
 H        -3.630374         1.463133         1.413984
 H        -2.543242         1.245801        -1.126834
 H        -1.695366         2.519247         0.025777
 H         0.544335         0.362630        -0.764078
 H        -1.829781        -0.817507        -1.142485
 H        -1.044344        -1.801195         0.067333
