19
Iteration:  3850charge 0 multiplicity 1
 O        -3.716700        -1.660940         0.998774
 C        -2.800402        -0.592210         1.150320
 C        -1.994773        -0.491825         2.395277
 C        -1.408325         0.814030         1.854476
 C        -2.861707         1.084645         1.061021
 C        -1.895007         1.590580        -0.081357
 C        -0.956040         0.459892         0.392877
 O         0.377644         0.516290        -0.038343
 C        -1.650612        -0.748266         0.086935
 H        -4.240834        -1.492944         1.826378
 H        -2.685331        -0.357208         3.265098
 H        -1.184941        -1.290480         2.573012
 H        -0.858873         1.641635         2.397626
 H        -3.685405         1.636628         1.538247
 H        -2.214502         1.635158        -1.184463
 H        -1.422579         2.562656         0.029265
 H         0.724104        -0.379263         0.193173
 H        -2.038349        -0.960792        -0.965620
 H        -0.917910        -1.569872         0.310545
