19
Iteration:  2860
 O        -3.868108        -1.462361         1.123314
 C        -2.763956        -0.641789         1.098769
 C        -1.987731        -0.509217         2.440507
 C        -1.381302         0.727342         1.824277
 C        -2.724714         0.995980         1.155645
 C        -2.048144         1.438365        -0.159305
 C        -0.926214         0.451065         0.357009
 O         0.426990         0.670167        -0.049782
 C        -1.568214        -0.899607         0.116437
 H        -4.033910        -1.925810         0.320097
 H        -2.573818        -0.187634         3.302878
 H        -1.362393        -1.408517         2.635476
 H        -0.831135         1.496658         2.439935
 H        -3.484315         1.573042         1.801086
 H        -2.528900         1.331982        -1.137889
 H        -1.791184         2.511688        -0.106699
 H         0.470555         1.625515        -0.076206
 H        -1.854146        -0.867577        -0.929051
 H        -0.900431        -1.708594         0.250664
