19
Iteration:   483charge 0 multiplicity 1
 O        -3.948973        -1.322357         0.909435
 C        -2.700019        -0.676465         1.218736
 C        -1.914213        -0.593866         2.502935
 C        -1.264398         0.715521         1.985793
 C        -2.685477         0.936290         1.186727
 C        -2.059559         1.395865        -0.076936
 C        -0.940854         0.500180         0.307113
 O         0.265007         0.802258        -0.214496
 C        -1.511497        -0.950023         0.228392
 H        -3.568344        -2.093934         0.413368
 H        -2.727291        -0.368886         3.250719
 H        -1.331348        -1.464317         2.833689
 H        -0.726268         1.366231         2.765710
 H        -3.587564         1.544559         1.704746
 H        -2.652390         1.162268        -0.952302
 H        -1.838547         2.464376        -0.123931
 H         0.068056         1.292457        -1.072180
 H        -1.694247        -1.193830        -0.811016
 H        -0.840814        -1.791281         0.311556
