19
Iteration:   768charge 0 multiplicity 1
 O        -3.908410        -1.459256         0.998414
 C        -2.743531        -0.632706         1.215362
 C        -1.847632        -0.599744         2.488711
 C        -1.418141         0.804003         1.853034
 C        -2.757239         0.918618         1.097158
 C        -2.029872         1.426480        -0.194094
 C        -0.904858         0.478371         0.305281
 O         0.386201         0.785091        -0.095142
 C        -1.582842        -0.864378         0.133632
 H        -4.396232        -1.516238         1.869260
 H        -2.494215        -0.419915         3.322415
 H        -1.110883        -1.389461         2.654607
 H        -1.022678         1.532195         2.481019
 H        -3.662354         1.500062         1.472721
 H        -2.521994         1.207508        -1.141825
 H        -1.847998         2.548171        -0.062082
 H         1.000090         0.114971         0.243648
 H        -2.020086        -0.965447        -0.847335
 H        -0.910329        -1.669294         0.427050
