19
Iteration:  4352charge 0 multiplicity 1
 O        -3.930860        -1.540563         1.241001
 C        -2.748972        -0.701215         1.100979
 C        -1.881037        -0.543532         2.484137
 C        -1.465657         0.793469         1.811962
 C        -2.839593         0.955455         0.960378
 C        -1.857729         1.590676        -0.203765
 C        -0.930013         0.531089         0.410910
 O         0.426733         0.567133         0.046127
 C        -1.640083        -0.847907        -0.005835
 H        -4.355993        -1.169088         0.472008
 H        -2.493454        -0.480047         3.368990
 H        -1.009354        -1.256132         2.531011
 H        -1.311447         1.700292         2.395472
 H        -3.728618         1.424149         1.303566
 H        -1.898223         1.534987        -1.341149
 H        -1.610020         2.621070        -0.072901
 H         0.970222         0.604657         0.854676
 H        -1.964513        -0.511365        -1.091616
 H        -0.931293        -1.723547        -0.038422
