19
Iteration:  2384
 O        -3.818377        -1.585839         1.221627
 C        -2.758779        -0.699453         1.121671
 C        -1.910675        -0.476051         2.540323
 C        -1.491523         0.779746         1.804302
 C        -2.827192         0.979927         0.956869
 C        -1.964918         1.568352        -0.145618
 C        -0.905608         0.576152         0.382203
 O         0.411202         0.521655        -0.073687
 C        -1.640350        -0.805373         0.030542
 H        -4.035609        -1.933718         0.341568
 H        -2.580289        -0.293953         3.408800
 H        -1.027699        -1.131544         2.873450
 H        -1.086159         1.685979         2.445412
 H        -3.676699         1.633926         1.396835
 H        -2.323493         1.599506        -1.203826
 H        -1.667700         2.621835         0.089206
 H         0.981544         0.456739         0.688846
 H        -1.978488        -0.584430        -1.044120
 H        -0.856912        -1.599781         0.027565
