19
Iteration:    97
 O        -3.935930        -1.323729         1.021419
 C        -2.648042        -0.683752         1.163963
 C        -1.881937        -0.521926         2.435220
 C        -1.374342         0.798669         1.784101
 C        -2.700993         0.884711         1.145063
 C        -2.182206         1.362261        -0.194110
 C        -0.951528         0.506271         0.297427
 O         0.426973         0.812699         0.038915
 C        -1.551391        -0.965617         0.148834
 H        -4.187958        -1.947627         1.747703
 H        -2.475568        -0.363899         3.331422
 H        -1.207912        -1.319697         2.804503
 H        -0.812379         1.651787         2.182960
 H        -3.522899         1.338583         1.578510
 H        -2.815553         1.196322        -1.155242
 H        -2.120025         2.405730        -0.133911
 H         0.937115         0.130729        -0.416960
 H        -1.891760        -1.032496        -0.894691
 H        -1.024684        -1.918647         0.295154
