19
Iteration:  3726
 O        -3.797072        -1.515646         1.074816
 C        -2.646326        -0.675256         1.128686
 C        -1.958049        -0.541741         2.527277
 C        -1.455865         0.756425         1.937687
 C        -2.841204         1.017507         1.013106
 C        -2.023195         1.586446        -0.104565
 C        -0.939482         0.554349         0.279470
 O         0.398460         0.513048        -0.073583
 C        -1.576543        -0.840373         0.017099
 H        -4.570583        -0.990585         1.319261
 H        -2.802721        -0.377586         3.249905
 H        -1.274307        -1.352553         2.932976
 H        -1.120209         1.619812         2.396919
 H        -3.694422         1.523188         1.447502
 H        -2.307644         1.562171        -1.185634
 H        -1.487029         2.556119         0.234515
 H         0.978590         0.124798         0.630823
 H        -2.062417        -0.868124        -0.931629
 H        -0.742363        -1.534494        -0.034657
