19
Iteration:  2291charge 0 multiplicity 1
 O        -3.912279        -1.441335         1.210692
 C        -2.672543        -0.707001         1.129466
 C        -1.995269        -0.501777         2.450868
 C        -1.480782         0.832871         1.831189
 C        -2.775056         0.962821         1.046844
 C        -1.992664         1.418853        -0.221126
 C        -0.948183         0.495767         0.368624
 O         0.423332         0.674030        -0.034734
 C        -1.457611        -0.960310         0.149142
 H        -4.502095        -1.324352         0.423415
 H        -2.720674        -0.400148         3.279360
 H        -1.239919        -1.261886         2.627191
 H        -1.009053         1.572726         2.397595
 H        -3.634073         1.282510         1.554384
 H        -2.327052         1.198639        -1.278851
 H        -1.707251         2.493261        -0.171044
 H         0.570935         1.517967        -0.553802
 H        -1.687073        -0.986563        -0.908852
 H        -0.805656        -1.797220         0.438463
