19
Iteration:   610charge 0 multiplicity 1
 O        -3.783459        -1.414965         0.924530
 C        -2.713214        -0.636860         1.203054
 C        -1.954284        -0.568487         2.492514
 C        -1.358120         0.798138         1.851581
 C        -2.745215         0.884129         1.236268
 C        -2.115902         1.457730        -0.085044
 C        -0.971474         0.423833         0.269392
 O         0.369170         0.784541        -0.142147
 C        -1.511437        -0.959790         0.213413
 H        -4.622467        -0.869812         1.047175
 H        -2.642759        -0.400481         3.359518
 H        -1.296486        -1.422490         2.671884
 H        -0.680001         1.584073         2.311984
 H        -3.484785         1.358952         1.793194
 H        -2.626733         1.193913        -1.100048
 H        -1.934100         2.508558         0.019942
 H         0.480161         0.707774        -1.095219
 H        -2.048237        -1.185673        -0.719024
 H        -0.825111        -1.654256         0.687531
