19
Iteration:  4217
 O        -3.923833        -1.437520         0.850696
 C        -2.762119        -0.608631         1.191727
 C        -1.887536        -0.579719         2.491502
 C        -1.367717         0.742699         1.837865
 C        -2.744582         0.963213         1.139117
 C        -2.071140         1.475815        -0.151180
 C        -0.891156         0.482610         0.333634
 O         0.525953         0.681752         0.098715
 C        -1.673475        -0.818094         0.059661
 H        -4.362010        -1.759017         1.639968
 H        -2.487440        -0.270451         3.394541
 H        -1.327313        -1.480422         2.745314
 H        -0.887706         1.477777         2.459655
 H        -3.536678         1.437372         1.801989
 H        -2.709898         1.287709        -1.037194
 H        -1.935732         2.581983         0.022584
 H         0.832406         0.254325        -0.687599
 H        -2.127075        -1.058328        -0.944027
 H        -1.064948        -1.749396         0.253244
