19
Iteration:   306charge 0 multiplicity 1
 O        -3.736729        -1.425011         0.762082
 C        -2.672514        -0.666461         1.236396
 C        -2.048267        -0.511452         2.605987
 C        -1.333588         0.695377         1.974238
 C        -2.681958         0.961848         1.306411
 C        -2.125019         1.482373         0.047504
 C        -0.945324         0.480892         0.356127
 O         0.252343         0.701729        -0.489100
 C        -1.531376        -0.994206         0.292298
 H        -4.031294        -1.134958        -0.151515
 H        -2.782154        -0.183687         3.371826
 H        -1.475610        -1.349638         3.057593
 H        -0.895746         1.462854         2.585693
 H        -3.400518         1.584757         1.977393
 H        -2.604941         1.289961        -1.028614
 H        -1.684179         2.515975         0.084768
 H         0.773865         1.555934        -0.491970
 H        -1.925092        -1.265769        -0.730803
 H        -0.918710        -1.772838         0.788588
