19
Iteration:  1542charge 0 multiplicity 1
 O        -3.747039        -1.662174         1.105948
 C        -2.732964        -0.699435         1.207530
 C        -2.008191        -0.391878         2.518304
 C        -1.487166         0.884271         1.812290
 C        -2.774991         0.999905         1.024575
 C        -1.974361         1.504458        -0.166094
 C        -0.929494         0.483428         0.327618
 O         0.366645         0.643594        -0.169248
 C        -1.557980        -0.877013         0.156769
 H        -4.558293        -1.406827         1.587115
 H        -2.668844        -0.087367         3.353591
 H        -1.391081        -1.276527         2.855914
 H        -0.969868         1.753783         2.420165
 H        -3.709881         1.523164         1.496566
 H        -2.188505         1.615314        -1.213816
 H        -1.691334         2.558115         0.104663
 H         0.945687        -0.083518         0.196634
 H        -1.939517        -0.842481        -0.908835
 H        -0.908907        -1.789879         0.212455
