19
Iteration:   143
 O        -3.995193        -1.245787         0.992572
 C        -2.682923        -0.652133         1.186041
 C        -1.921370        -0.576346         2.528523
 C        -1.327279         0.804688         1.869785
 C        -2.702379         0.895107         1.142397
 C        -2.100257         1.287976        -0.183768
 C        -0.870141         0.432657         0.368301
 O         0.357167         0.844551        -0.214074
 C        -1.495371        -1.048676         0.290325
 H        -3.977419        -1.809580         0.237477
 H        -2.619919        -0.468264         3.338283
 H        -1.265317        -1.362841         2.841592
 H        -1.025426         1.563609         2.536297
 H        -3.637247         1.303542         1.630979
 H        -2.586679         1.010875        -1.097986
 H        -1.824291         2.342304        -0.323985
 H         0.120603         1.774984        -0.328446
 H        -1.760155        -1.378245        -0.701092
 H        -0.769666        -1.750189         0.662085
