19
Iteration:  2819charge 0 multiplicity 1
 O        -3.981754        -1.250276         0.976851
 C        -2.607941        -0.711668         1.199393
 C        -1.962966        -0.637241         2.625299
 C        -1.611557         0.731285         1.994949
 C        -2.720812         0.853708         1.127311
 C        -1.981545         1.459851        -0.104019
 C        -0.848334         0.553943         0.349883
 O         0.365662         0.648109        -0.301574
 C        -1.416899        -0.876638         0.160013
 H        -3.968580        -2.026019         0.309736
 H        -2.654014        -0.534263         3.462580
 H        -1.065256        -1.193662         2.893596
 H        -1.202558         1.619226         2.554165
 H        -3.706766         1.218713         1.511890
 H        -2.316435         1.396939        -1.111947
 H        -1.823014         2.505266         0.215045
 H         0.471589         1.487091        -0.824640
 H        -1.964576        -1.024734        -0.789976
 H        -0.864312        -1.773213         0.411201
