19
Iteration:  1689
 O        -3.848195        -1.390828         0.866001
 C        -2.649106        -0.607618         1.256121
 C        -1.957747        -0.447689         2.576798
 C        -1.348071         0.784558         1.909641
 C        -2.756242         0.945795         1.149634
 C        -2.119840         1.415867        -0.166867
 C        -0.940285         0.487768         0.334176
 O         0.331520         0.599471        -0.233468
 C        -1.547541        -0.932739         0.268511
 H        -3.541645        -2.305458         0.859747
 H        -2.687899        -0.148377         3.366821
 H        -1.462060        -1.380332         2.909464
 H        -0.847893         1.576551         2.376305
 H        -3.629225         1.337918         1.598414
 H        -2.672854         1.237199        -1.176267
 H        -1.793824         2.473089        -0.086578
 H         0.715221         1.482370        -0.126849
 H        -1.977541        -1.122585        -0.764373
 H        -0.763103        -1.721482         0.649154
