19
Iteration:   447
 O        -3.814924        -1.453355         0.912383
 C        -2.686297        -0.628125         1.261466
 C        -1.974268        -0.590937         2.566834
 C        -1.358456         0.743395         1.935003
 C        -2.738676         0.926632         1.233938
 C        -2.095924         1.489456        -0.036915
 C        -0.967903         0.532911         0.254066
 O         0.314493         0.640731        -0.364726
 C        -1.508873        -0.892372         0.229233
 H        -3.867901        -1.263438        -0.036123
 H        -2.720091        -0.309878         3.369156
 H        -1.381587        -1.484411         2.876848
 H        -0.918356         1.450082         2.646162
 H        -3.518072         1.486059         1.606129
 H        -2.518446         1.357409        -1.074439
 H        -1.872385         2.481454         0.211421
 H         0.783857         1.399050         0.086743
 H        -1.991015        -1.014795        -0.775466
 H        -0.776871        -1.560732         0.665046
