19
Iteration:  1935
 O        -3.750371        -1.554216         1.128527
 C        -2.718257        -0.609300         1.124296
 C        -1.812607        -0.471397         2.439717
 C        -1.481831         0.867272         1.764850
 C        -2.817337         0.948780         1.074314
 C        -2.127581         1.483703        -0.193533
 C        -0.958285         0.483994         0.285485
 O         0.470481         0.558641         0.088700
 C        -1.650888        -0.817604         0.005315
 H        -4.662307        -1.151248         1.346125
 H        -2.475077        -0.317060         3.300850
 H        -1.097893        -1.242103         2.681344
 H        -0.968186         1.743143         2.188580
 H        -3.570026         1.471635         1.618446
 H        -2.634910         1.429468        -1.145196
 H        -1.718914         2.523741        -0.134303
 H         0.825438         0.154898         0.878856
 H        -2.120832        -1.192358        -0.871771
 H        -1.042048        -1.603582         0.323253
