19
Iteration:  2161charge 0 multiplicity 1
 O        -3.872940        -1.306318         0.916152
 C        -2.645277        -0.630121         1.240341
 C        -1.992180        -0.542256         2.582086
 C        -1.352490         0.816820         1.873657
 C        -2.737948         0.864043         1.101125
 C        -2.121363         1.285243        -0.237224
 C        -0.954623         0.489047         0.307532
 O         0.330364         0.836484        -0.172570
 C        -1.426810        -1.025035         0.267950
 H        -4.574146        -0.698497         0.754905
 H        -2.657656        -0.143117         3.382001
 H        -1.370687        -1.231680         3.169837
 H        -0.917472         1.653243         2.323884
 H        -3.601278         1.234368         1.581652
 H        -2.606944         0.826653        -1.101229
 H        -2.043119         2.390284        -0.258384
 H         1.000352         0.184511         0.125044
 H        -1.798033        -1.552740        -0.651555
 H        -0.731004        -1.711953         0.811361
