19
Iteration:  1069
 O        -3.838850        -1.508288         1.260801
 C        -2.716692        -0.655685         1.141790
 C        -1.626627        -0.658491         2.232102
 C        -1.441063         0.767181         1.720741
 C        -2.822190         0.990823         1.194203
 C        -2.073608         1.561468        -0.206881
 C        -0.994304         0.563168         0.277273
 O         0.418304         0.551248         0.284233
 C        -1.726005        -0.790230        -0.078923
 H        -4.530225        -1.160240         0.609678
 H        -1.949040        -0.828948         3.285070
 H        -0.811195        -1.345659         2.005147
 H        -0.737006         1.455651         2.355894
 H        -3.696306         1.608428         1.626217
 H        -2.671146         1.154922        -1.126357
 H        -1.928591         2.636382        -0.375363
 H         0.658896         1.469890         0.262940
 H        -2.379313        -0.790907        -0.942954
 H        -1.169765        -1.717105        -0.094289
