19
Iteration:  4060charge 0 multiplicity 1
 O        -3.973345        -1.255285         0.965823
 C        -2.743688        -0.644626         1.107534
 C        -1.927228        -0.648710         2.464842
 C        -1.413611         0.693216         1.911739
 C        -2.695920         0.942966         1.135852
 C        -2.002781         1.507463        -0.124872
 C        -0.943301         0.424392         0.359100
 O         0.372344         0.782637        -0.067629
 C        -1.555527        -0.945154         0.076105
 H        -3.765305        -2.114665         1.340421
 H        -2.640136        -0.719305         3.299034
 H        -1.222456        -1.509340         2.572086
 H        -0.781166         1.502676         2.394777
 H        -3.640594         1.345834         1.536200
 H        -2.385819         1.386021        -1.144253
 H        -1.572758         2.523042         0.072787
 H         0.995005         0.602482         0.620021
 H        -1.937807        -1.159453        -0.901880
 H        -0.809449        -1.717213         0.338925
