19
Iteration:  2140charge 0 multiplicity 1
 O        -3.824491        -1.439850         0.790848
 C        -2.689818        -0.570492         1.254935
 C        -1.910664        -0.408874         2.564318
 C        -1.378970         0.730878         1.814139
 C        -2.726490         1.038841         1.165246
 C        -2.194272         1.264301        -0.222984
 C        -0.904550         0.388773         0.308599
 O         0.369770         0.822674        -0.121517
 C        -1.553488        -0.986106         0.292378
 H        -4.573739        -1.387394         1.474795
 H        -2.477115        -0.133427         3.479629
 H        -1.282949        -1.235507         3.022961
 H        -0.808417         1.507181         2.167560
 H        -3.489284         1.581631         1.601936
 H        -2.827199         0.880757        -1.015941
 H        -1.782451         2.278075        -0.436700
 H         1.032533         0.564027         0.567660
 H        -1.899664        -1.237878        -0.758670
 H        -1.066206        -1.905798         0.722397
