19
Iteration:  2200charge 0 multiplicity 1
 O        -3.871276        -1.513674         1.240382
 C        -2.724491        -0.614929         1.130637
 C        -1.950728        -0.494604         2.475232
 C        -1.578900         0.842103         1.891779
 C        -2.803676         0.948361         1.009347
 C        -1.964132         1.450547        -0.166719
 C        -0.821265         0.513701         0.323312
 O         0.444556         0.739530        -0.156784
 C        -1.558190        -0.949844         0.189196
 H        -4.104513        -1.640390         0.267619
 H        -2.736184        -0.447684         3.225339
 H        -1.282577        -1.351496         2.567727
 H        -1.165357         1.791785         2.456039
 H        -3.833924         1.478894         1.159937
 H        -2.219408         1.322672        -1.253325
 H        -1.784561         2.508769         0.049122
 H         0.919081        -0.094532        -0.107703
 H        -1.837192        -1.160208        -0.828947
 H        -1.060385        -1.840732         0.572987
