19
Iteration:  3743
 O        -3.862908        -1.422603         1.038096
 C        -2.679142        -0.695462         1.120889
 C        -1.976369        -0.536421         2.451682
 C        -1.479933         0.779062         1.869981
 C        -2.730640         0.853159         1.127070
 C        -1.971901         1.526661        -0.157245
 C        -0.866158         0.494907         0.435039
 O         0.372334         0.639300        -0.149548
 C        -1.594757        -0.851182         0.102167
 H        -4.555974        -0.764353         1.081339
 H        -2.641173        -0.348144         3.291505
 H        -1.324521        -1.354140         2.753723
 H        -0.907216         1.685769         2.355290
 H        -3.684462         1.256556         1.523596
 H        -2.404750         1.366062        -1.132530
 H        -1.840868         2.556010         0.118381
 H         0.944708         0.480429         0.632450
 H        -1.866841        -0.927400        -0.992260
 H        -1.031531        -1.753448         0.419936
