19
Iteration:  2555
 O        -3.838921        -1.439722         1.235114
 C        -2.698515        -0.631465         1.115506
 C        -1.673832        -0.581531         2.395846
 C        -1.416248         0.801565         1.794014
 C        -2.935671         0.958836         0.955884
 C        -2.124054         1.592153        -0.145837
 C        -0.970811         0.552614         0.348695
 O         0.380229         0.429489         0.108291
 C        -1.601037        -0.830636         0.025133
 H        -4.216600        -1.622685         0.297557
 H        -2.294053        -0.552815         3.268909
 H        -0.828923        -1.270868         2.463684
 H        -0.855164         1.466380         2.556212
 H        -4.032839         1.341934         1.243889
 H        -2.232726         1.689331        -1.241082
 H        -2.010168         2.596316         0.344000
 H         0.882241         1.273302         0.233091
 H        -1.888009        -0.943250        -1.024404
 H        -0.897433        -1.643493         0.174950
