19
Iteration:  2835charge 0 multiplicity 1
 O        -3.986050        -1.268246         1.117538
 C        -2.701662        -0.739283         1.115268
 C        -1.955737        -0.634743         2.506986
 C        -1.479450         0.762349         2.020557
 C        -2.802555         0.831240         0.990623
 C        -1.969228         1.544097        -0.072732
 C        -0.913055         0.490538         0.304561
 O         0.400134         0.690516        -0.240397
 C        -1.418985        -0.932388         0.240059
 H        -4.101596        -1.888608         0.383037
 H        -2.630591        -0.596837         3.401844
 H        -1.258998        -1.482030         2.557521
 H        -1.102500         1.516622         2.682004
 H        -3.760759         1.242038         1.244821
 H        -2.342096         1.755944        -1.142746
 H        -1.649878         2.597382         0.242379
 H         0.362291         1.522536        -0.730900
 H        -1.491493        -1.244775        -0.823095
 H        -0.517468        -1.521986         0.561814
