19
Iteration:  3922
 O        -3.928252        -1.263597         0.912327
 C        -2.660097        -0.685116         1.094231
 C        -1.897908        -0.603204         2.468266
 C        -1.485032         0.753212         1.920200
 C        -2.758139         1.015688         1.108836
 C        -2.053288         1.425053        -0.156484
 C        -0.897359         0.447901         0.370044
 O         0.338077         0.809654        -0.118706
 C        -1.473163        -1.026142         0.209055
 H        -4.386173        -1.144946         1.807472
 H        -2.632620        -0.730493         3.282232
 H        -1.144756        -1.403541         2.687037
 H        -0.756541         1.126394         2.649633
 H        -3.802879         1.275336         1.362514
 H        -2.459572         1.268877        -1.171448
 H        -1.453057         2.400449        -0.084973
 H         0.907029         0.263031         0.528434
 H        -1.817911        -1.156028        -0.809376
 H        -1.065936        -2.030221         0.537363
