19
Iteration:  1358
 O        -3.856041        -1.446328         1.110740
 C        -2.740370        -0.620474         1.156741
 C        -1.779108        -0.564509         2.406499
 C        -1.432138         0.768065         1.790551
 C        -2.787031         0.968506         1.075110
 C        -2.129312         1.416898        -0.221659
 C        -0.944113         0.527031         0.318530
 O         0.438876         0.702333         0.155517
 C        -1.598048        -0.954576         0.024538
 H        -4.554698        -1.169238         1.768127
 H        -2.201996        -0.414735         3.439700
 H        -0.962082        -1.308763         2.477450
 H        -0.906163         1.648544         2.237940
 H        -3.584307         1.414709         1.695193
 H        -2.527299         1.135200        -1.229695
 H        -1.978023         2.557292        -0.200780
 H         0.562506         0.907835        -0.788067
 H        -2.033412        -1.045231        -0.996042
 H        -0.967093        -1.797321         0.409865
