19
Iteration:   590
 O        -3.785199        -1.623428         0.976453
 C        -2.685310        -0.695047         1.194428
 C        -1.861928        -0.484948         2.534538
 C        -1.369936         0.716083         1.827266
 C        -2.796688         1.008365         1.106159
 C        -2.079616         1.612096        -0.095741
 C        -0.959917         0.539467         0.337216
 O         0.364631         0.593463        -0.057582
 C        -1.603862        -0.790233         0.048349
 H        -4.356639        -1.377672         1.781337
 H        -2.551700        -0.174194         3.398779
 H        -1.289762        -1.345333         2.947399
 H        -1.057239         1.561506         2.539619
 H        -3.688015         1.447023         1.668475
 H        -2.423705         1.470986        -1.201965
 H        -1.732827         2.625441         0.086418
 H         0.319805         0.469417        -1.042041
 H        -1.996551        -0.919973        -1.077163
 H        -0.951840        -1.637109         0.437901
