19
Iteration:  1175
 O        -3.877078        -1.268387         0.860807
 C        -2.657515        -0.683691         1.151267
 C        -1.785527        -0.596261         2.546020
 C        -1.370133         0.731144         1.941152
 C        -2.747777         0.865864         1.267614
 C        -2.150237         1.517140        -0.037688
 C        -0.982903         0.569675         0.352675
 O         0.303061         0.558075        -0.175186
 C        -1.565520        -0.849709         0.070396
 H        -3.688155        -2.236971         0.685159
 H        -2.515540        -0.462515         3.367817
 H        -1.048578        -1.394733         2.671120
 H        -0.836182         1.494088         2.636328
 H        -3.679932         1.151238         1.747100
 H        -2.566438         1.242369        -0.999503
 H        -1.941098         2.571876         0.101329
 H         0.659125         1.405363        -0.437519
 H        -2.087041        -0.980430        -0.891543
 H        -0.752429        -1.554201         0.318725
