19
Iteration:   397
 O        -3.795348        -1.538382         1.360361
 C        -2.719804        -0.640495         1.059141
 C        -1.784589        -0.644705         2.339461
 C        -1.369235         0.716058         1.762983
 C        -2.800102         0.938553         1.018107
 C        -2.100008         1.636275        -0.169133
 C        -0.967894         0.550672         0.277952
 O         0.473949         0.622426         0.167741
 C        -1.767145        -0.825997        -0.082115
 H        -4.561417        -1.393324         0.689749
 H        -2.331576        -0.744627         3.275654
 H        -1.024762        -1.406419         2.278335
 H        -0.714178         1.376968         2.410971
 H        -3.815239         1.339526         1.568779
 H        -2.705723         1.594349        -1.078657
 H        -1.704496         2.744853        -0.022477
 H         0.739063         1.394640         0.691381
 H        -2.194711        -0.723806        -1.078318
 H        -1.184053        -1.781418         0.020022
