19
Iteration:   635
 O        -3.992378        -1.250088         0.912234
 C        -2.737826        -0.709805         1.155940
 C        -1.763966        -0.633158         2.572229
 C        -1.322227         0.689095         1.920779
 C        -2.684622         0.867914         1.163653
 C        -2.134690         1.243874        -0.213467
 C        -0.951118         0.463643         0.409112
 O         0.313695         0.952487        -0.127745
 C        -1.454208        -0.969631         0.229811
 H        -4.612735        -0.480288         0.653522
 H        -2.342051        -0.239648         3.480531
 H        -0.981707        -1.364472         2.929278
 H        -0.645496         1.361690         2.505251
 H        -3.624096         1.514117         1.427426
 H        -2.793274         0.753778        -1.012739
 H        -2.001316         2.340405        -0.427435
 H         0.296132         0.721078        -1.084547
 H        -1.883495        -1.004685        -0.856184
 H        -0.720586        -1.740781         0.650613
