19
Iteration:  2184
 O        -3.941168        -1.376211         1.120297
 C        -2.715544        -0.739292         1.139605
 C        -1.972296        -0.485964         2.532538
 C        -1.492063         0.859343         1.918810
 C        -2.851562         0.871244         0.984518
 C        -1.962082         1.356913        -0.179583
 C        -0.939273         0.502615         0.455973
 O         0.399855         0.779684        -0.257344
 C        -1.390630        -0.932184         0.227834
 H        -4.546046        -1.043683         0.379476
 H        -2.535736        -0.416845         3.488069
 H        -1.108737        -1.119116         2.847068
 H        -1.098884         1.604557         2.508461
 H        -3.705317         1.218584         1.437654
 H        -2.310524         1.064803        -1.150567
 H        -1.648641         2.406415        -0.005930
 H         0.973505        -0.012221        -0.344285
 H        -1.568644        -1.137872        -0.870989
 H        -0.665658        -1.687048         0.618329
