19
Iteration:    58charge 0 multiplicity 1
 O        -3.619983        -1.775416         1.153618
 C        -2.755604        -0.695361         1.158969
 C        -1.964383        -0.503798         2.410648
 C        -1.520345         0.913383         1.850125
 C        -2.752399         1.090416         1.027060
 C        -1.906815         1.653784        -0.173426
 C        -0.944303         0.600971         0.360512
 O         0.308983         0.493563        -0.095897
 C        -1.691854        -0.777700         0.092937
 H        -4.295310        -1.591206         1.872101
 H        -2.647346        -0.634809         3.290249
 H        -1.109463        -1.184882         2.472549
 H        -1.114566         1.678953         2.455544
 H        -3.765559         1.601082         1.344309
 H        -2.198801         1.636139        -1.163721
 H        -1.597648         2.722266         0.235656
 H         0.552917        -0.371158         0.332586
 H        -2.129611        -0.544015        -0.878357
 H        -1.035930        -1.673357         0.059572
