19
Iteration:  3827
 O        -3.894646        -1.508953         0.913337
 C        -2.753055        -0.624708         1.209415
 C        -1.963740        -0.560295         2.506088
 C        -1.497538         0.776036         1.945801
 C        -2.752321         0.947076         1.045565
 C        -1.955322         1.553147        -0.172524
 C        -0.847379         0.587437         0.374338
 O         0.441658         0.625811        -0.132319
 C        -1.568197        -0.867880         0.182972
 H        -4.258332        -1.555432         1.824051
 H        -2.609600        -0.416398         3.395624
 H        -1.077483        -1.264631         2.704769
 H        -1.269467         1.671974         2.507738
 H        -3.576955         1.534670         1.481618
 H        -2.428844         1.577115        -1.212040
 H        -1.728606         2.620132        -0.035679
 H         0.598136        -0.345821        -0.237947
 H        -1.938451        -1.059502        -0.870655
 H        -1.159065        -1.840917         0.507869
