19
Iteration:  3961charge 0 multiplicity 1
 O        -3.877695        -1.522458         0.778045
 C        -2.768240        -0.623641         1.195023
 C        -2.047397        -0.563626         2.577021
 C        -1.335159         0.714311         1.918757
 C        -2.733755         0.996258         1.211301
 C        -2.061709         1.451886        -0.111704
 C        -0.908210         0.506119         0.313159
 O         0.501228         0.762970        -0.186663
 C        -1.601855        -0.893855         0.248549
 H        -4.676572        -1.148641         1.147772
 H        -2.554931         0.038145         3.307358
 H        -1.386856        -1.284629         3.028002
 H        -0.703706         1.412913         2.499666
 H        -3.517101         1.529234         1.755743
 H        -2.545157         1.291212        -1.058259
 H        -1.910844         2.512201        -0.024391
 H         0.956971        -0.069463        -0.310542
 H        -1.914730        -0.881657        -0.788924
 H        -0.995085        -1.779328         0.415548
