19
Iteration:  4391
 O        -3.970309        -1.461322         1.027912
 C        -2.802846        -0.564210         1.114035
 C        -1.985824        -0.508414         2.477180
 C        -1.360789         0.740398         1.838295
 C        -2.749054         1.027072         1.140988
 C        -2.041504         1.430920        -0.138235
 C        -0.879563         0.512604         0.369380
 O         0.442193         0.707610        -0.070676
 C        -1.474273        -0.974614         0.131180
 H        -4.086267        -1.849177         0.103368
 H        -2.759779        -0.094020         3.203813
 H        -1.456893        -1.414232         2.771874
 H        -0.889839         1.597586         2.331781
 H        -3.538375         1.547924         1.794720
 H        -2.551164         1.165204        -1.061220
 H        -1.825182         2.544439        -0.090623
 H         1.046799         0.088228         0.427672
 H        -1.791079        -1.125737        -0.842414
 H        -0.925083        -1.841172         0.521854
