19
Iteration:  2711charge 0 multiplicity 1
 O        -3.958902        -1.347383         1.159779
 C        -2.680746        -0.703120         1.094814
 C        -1.873429        -0.645931         2.406126
 C        -1.481556         0.699480         1.894989
 C        -2.785818         0.956413         1.029501
 C        -2.063292         1.601227        -0.144256
 C        -0.928509         0.504594         0.271315
 O         0.463408         0.673985        -0.033858
 C        -1.536307        -0.905521         0.079472
 H        -3.764316        -2.239196         1.462106
 H        -2.505780        -0.686511         3.300918
 H        -1.106787        -1.415508         2.523715
 H        -0.930038         1.521611         2.337633
 H        -3.692973         1.348927         1.496552
 H        -2.610230         1.399322        -1.073678
 H        -1.851485         2.647832         0.100805
 H         0.727981         1.340301         0.595018
 H        -1.987687        -0.916752        -0.932629
 H        -0.908403        -1.789604         0.257879
