19
Iteration:  2982
 O        -3.873021        -1.332317         0.862195
 C        -2.727220        -0.618125         1.218040
 C        -1.884043        -0.618945         2.558180
 C        -1.347169         0.763166         1.833907
 C        -2.707364         0.990661         1.214717
 C        -2.190001         1.396096        -0.171661
 C        -0.970195         0.461660         0.264790
 O         0.366734         0.661751        -0.026641
 C        -1.489913        -0.930722         0.252009
 H        -3.967329        -1.628384        -0.033168
 H        -2.429144        -0.314921         3.460595
 H        -1.232897        -1.477424         2.774176
 H        -0.731315         1.601420         2.164343
 H        -3.552070         1.540399         1.583726
 H        -2.775338         1.066933        -1.036344
 H        -1.923225         2.471570        -0.267595
 H         0.409426         1.564849        -0.332799
 H        -1.865400        -1.252261        -0.686287
 H        -0.793283        -1.651804         0.639692
