19
Iteration:   438
 O        -3.836236        -1.482872         0.960172
 C        -2.664565        -0.676186         1.172697
 C        -1.901839        -0.580937         2.555394
 C        -1.373383         0.759886         2.015112
 C        -2.727716         0.942501         1.153122
 C        -2.119583         1.540499        -0.100492
 C        -0.942902         0.548613         0.348943
 O         0.295432         0.603024        -0.302563
 C        -1.552687        -0.832723         0.184857
 H        -4.260290        -1.317361         0.114567
 H        -2.510087        -0.342296         3.473380
 H        -1.179705        -1.385679         2.765430
 H        -0.775116         1.552017         2.554005
 H        -3.752226         1.264420         1.529244
 H        -2.501914         1.538483        -1.138373
 H        -1.949156         2.567560         0.158892
 H         1.003800         1.108084         0.168226
 H        -1.937944        -1.166175        -0.783020
 H        -0.846004        -1.649391         0.346166
