19
Iteration:  4482charge 0 multiplicity 1
 O        -3.811385        -1.541041         1.187956
 C        -2.789888        -0.572945         1.126421
 C        -1.963798        -0.539150         2.370197
 C        -1.450743         0.753396         1.801702
 C        -2.817374         1.057325         1.042922
 C        -1.975447         1.489842        -0.202026
 C        -0.930460         0.452332         0.304007
 O         0.553783         0.678834         0.164559
 C        -1.705955        -0.849826         0.099226
 H        -4.225478        -1.556349         0.324548
 H        -2.585304        -0.331289         3.265358
 H        -1.223111        -1.405433         2.459263
 H        -0.774199         1.432355         2.316736
 H        -3.620297         1.558934         1.522093
 H        -2.418530         1.347112        -1.269521
 H        -1.467937         2.409997         0.019051
 H         0.692759         0.052640        -0.523311
 H        -2.256627        -0.910802        -0.828149
 H        -1.142867        -1.771884         0.252103
