19
Iteration:  1785charge 0 multiplicity 1
 O        -3.906797        -1.380476         1.154591
 C        -2.701170        -0.668193         1.175583
 C        -1.913566        -0.621459         2.492522
 C        -1.400788         0.718597         1.809015
 C        -2.800129         0.849716         1.074635
 C        -2.044360         1.451548        -0.166164
 C        -0.922016         0.515127         0.320505
 O         0.425294         0.741162        -0.108404
 C        -1.548354        -0.899890         0.100496
 H        -4.283625        -1.156990         0.258185
 H        -2.529067        -0.259586         3.349722
 H        -1.302322        -1.453959         2.860867
 H        -0.912211         1.481195         2.372847
 H        -3.520828         1.363439         1.637157
 H        -2.482766         1.277361        -1.156162
 H        -1.918376         2.468626         0.120543
 H         0.714984         1.596595         0.199999
 H        -1.974828        -1.052794        -0.890386
 H        -0.872426        -1.667712         0.500295
