19
Iteration:   123
 O        -3.984199        -1.116316         0.987518
 C        -2.713588        -0.610425         1.209007
 C        -1.867432        -0.606210         2.561853
 C        -1.351561         0.634411         1.836431
 C        -2.748324         0.905578         1.151582
 C        -2.094519         1.163950        -0.247841
 C        -0.952674         0.429401         0.310005
 O         0.328853         0.951679        -0.042129
 C        -1.417604        -0.998254         0.193829
 H        -3.985136        -2.133582         0.908808
 H        -2.365233        -0.337680         3.509365
 H        -1.153716        -1.400910         2.738501
 H        -0.707325         1.402350         2.264913
 H        -3.711718         1.439590         1.569643
 H        -2.610350         0.745166        -1.040242
 H        -1.859708         2.284955        -0.414016
 H         0.350367         1.172012        -1.001996
 H        -1.627656        -1.234468        -0.854311
 H        -0.852199        -1.787857         0.690598
