19
Iteration:  3587
 O        -3.844803        -1.498550         1.061841
 C        -2.747669        -0.659558         1.131457
 C        -1.966768        -0.460225         2.536676
 C        -1.416515         0.814427         1.859348
 C        -2.765290         1.012582         1.133663
 C        -2.032510         1.453348        -0.190956
 C        -0.915095         0.516720         0.321489
 O         0.402185         0.498201        -0.015145
 C        -1.603048        -0.843390         0.079585
 H        -3.900964        -1.641395         0.062626
 H        -2.497903        -0.086402         3.384862
 H        -1.374140        -1.253773         2.968018
 H        -0.895720         1.553266         2.416012
 H        -3.633675         1.455105         1.626198
 H        -2.434001         1.235532        -1.183345
 H        -1.695280         2.463484        -0.126458
 H         0.826383         1.411031        -0.016074
 H        -1.815809        -0.959162        -1.020762
 H        -0.889215        -1.671172         0.363291
