19
Iteration:   448
 O        -3.811487        -1.449015         0.911042
 C        -2.690013        -0.624864         1.265024
 C        -1.980914        -0.591916         2.568220
 C        -1.360079         0.738366         1.922051
 C        -2.740426         0.923145         1.240741
 C        -2.091155         1.482479        -0.029319
 C        -0.965416         0.532009         0.248248
 O         0.316480         0.645343        -0.369814
 C        -1.507833        -0.895775         0.233063
 H        -3.826809        -1.257995        -0.068591
 H        -2.738277        -0.307683         3.365308
 H        -1.403486        -1.484039         2.888827
 H        -0.926606         1.460630         2.654280
 H        -3.528920         1.531702         1.659576
 H        -2.534492         1.338478        -1.048663
 H        -1.844294         2.478389         0.193032
 H         0.745647         1.425163         0.070453
 H        -1.965423        -1.018575        -0.765423
 H        -0.779496        -1.558649         0.676263
