19
Iteration:   697charge 0 multiplicity 1
 O        -3.716531        -1.694098         1.188325
 C        -2.761179        -0.705730         1.165848
 C        -1.886883        -0.541841         2.438604
 C        -1.449777         0.816031         1.801320
 C        -2.756467         1.009142         1.052564
 C        -1.958110         1.574143        -0.185832
 C        -0.981381         0.583851         0.301620
 O         0.377790         0.555895         0.062421
 C        -1.677438        -0.749539         0.072996
 H        -4.660075        -1.362992         1.031727
 H        -2.532540        -0.078717         3.218107
 H        -1.259538        -1.389160         2.655075
 H        -1.067660         1.787065         2.340352
 H        -3.482327         1.593502         1.506714
 H        -2.341248         1.456808        -1.246768
 H        -1.673614         2.577003         0.008155
 H         0.411464         0.439016        -0.913211
 H        -2.151175        -0.625139        -0.920764
 H        -0.912463        -1.515739         0.226920
