19
Iteration:  1936
 O        -3.745050        -1.556288         1.118432
 C        -2.722473        -0.610709         1.133450
 C        -1.821337        -0.470053         2.446156
 C        -1.478479         0.859792         1.767381
 C        -2.817145         0.952864         1.077204
 C        -2.118403         1.493800        -0.198287
 C        -0.959737         0.483066         0.293981
 O         0.464555         0.560179         0.073950
 C        -1.644991        -0.817435         0.016603
 H        -4.639524        -1.173762         1.379776
 H        -2.516209        -0.282457         3.279205
 H        -1.120537        -1.249969         2.677496
 H        -0.959912         1.722010         2.175364
 H        -3.582628         1.444825         1.620599
 H        -2.615798         1.419105        -1.163048
 H        -1.740238         2.536916        -0.145278
 H         0.828715         0.133999         0.855431
 H        -2.109229        -1.177508        -0.853473
 H        -1.050081        -1.618187         0.324965
