19
Iteration:   132charge 0 multiplicity 1
 O        -3.998228        -1.139373         0.993063
 C        -2.710180        -0.673959         1.239779
 C        -1.906291        -0.635261         2.516420
 C        -1.382359         0.756363         1.860547
 C        -2.687420         0.910094         1.125603
 C        -2.113710         1.188779        -0.209230
 C        -0.893610         0.397820         0.341015
 O         0.327643         0.917422        -0.119412
 C        -1.405709        -1.012646         0.254575
 H        -3.890577        -2.020981         0.482276
 H        -2.434625        -0.315857         3.389487
 H        -1.268551        -1.490351         2.595888
 H        -0.751284         1.522390         2.217445
 H        -3.484276         1.582907         1.542221
 H        -2.612833         0.814411        -1.082053
 H        -1.887123         2.270676        -0.189971
 H         0.108327         1.605802        -0.789993
 H        -1.730483        -1.241018        -0.746357
 H        -0.882533        -1.820439         0.734450
