19
Iteration:  4125charge 0 multiplicity 1
 O        -3.841500        -1.447720         0.914599
 C        -2.735050        -0.556420         1.167493
 C        -1.977089        -0.581806         2.427544
 C        -1.399405         0.687959         1.882872
 C        -2.731741         1.100012         1.191846
 C        -1.997517         1.492599        -0.017770
 C        -0.970664         0.413307         0.362885
 O         0.406003         0.732511        -0.080416
 C        -1.691373        -0.907114         0.155729
 H        -3.543504        -2.017941         0.138444
 H        -2.688191        -0.331710         3.248549
 H        -1.286423        -1.456336         2.555234
 H        -0.640977         1.334255         2.417853
 H        -3.514739         1.562135         1.784102
 H        -2.482016         1.340170        -1.019976
 H        -1.599598         2.563840        -0.014194
 H         0.855643        -0.095963        -0.444806
 H        -1.898792        -1.062419        -0.907995
 H        -0.958141        -1.646804         0.523538
