19
Iteration:   925charge 0 multiplicity 1
 O        -3.823894        -1.452317         1.195575
 C        -2.715362        -0.674698         1.170957
 C        -1.855620        -0.600711         2.427843
 C        -1.381454         0.756357         1.801859
 C        -2.720796         0.958280         1.071385
 C        -2.066006         1.496434        -0.223525
 C        -0.945959         0.487056         0.347160
 O         0.383874         0.735877         0.099027
 C        -1.724134        -0.864110         0.067009
 H        -4.186186        -1.632075         0.277972
 H        -2.230895        -0.434728         3.424112
 H        -1.145388        -1.383280         2.245291
 H        -0.829575         1.662927         2.349948
 H        -3.647855         1.388915         1.350214
 H        -2.557324         1.344175        -1.221401
 H        -1.690090         2.470245        -0.038144
 H         0.736242         0.415581        -0.771828
 H        -2.212448        -0.870062        -0.873211
 H        -1.035662        -1.681320         0.281704
