19
Iteration:  1114
 O        -3.862034        -1.440882         1.052304
 C        -2.665108        -0.720982         1.132196
 C        -2.036904        -0.596472         2.538168
 C        -1.415474         0.713803         1.984050
 C        -2.710315         0.961218         1.224778
 C        -2.036385         1.519708         0.015855
 C        -0.899394         0.491743         0.340257
 O         0.312114         0.704625        -0.343515
 C        -1.482979        -0.914617         0.047212
 H        -4.343771        -1.179816         0.238988
 H        -2.874686        -0.379277         3.219959
 H        -1.432779        -1.427937         2.953769
 H        -0.911620         1.491142         2.588272
 H        -3.627586         1.314287         1.810306
 H        -2.391064         1.593964        -1.065438
 H        -1.542342         2.507527         0.270436
 H         0.593357         1.620903        -0.298420
 H        -1.737567        -1.039074        -1.025716
 H        -0.726257        -1.665056         0.245411
