19
Iteration:  4061charge 0 multiplicity 1
 O        -3.976658        -1.250842         0.961080
 C        -2.733438        -0.645675         1.116374
 C        -1.929049        -0.651657         2.470622
 C        -1.418827         0.699615         1.912169
 C        -2.698748         0.941585         1.131514
 C        -2.013158         1.513937        -0.127642
 C        -0.937219         0.420951         0.361103
 O         0.375163         0.781120        -0.075482
 C        -1.556111        -0.950841         0.075613
 H        -3.799143        -2.145870         1.319852
 H        -2.625702        -0.736534         3.304925
 H        -1.254045        -1.501266         2.580929
 H        -0.792061         1.503833         2.423928
 H        -3.633319         1.337066         1.578635
 H        -2.377306         1.390342        -1.116053
 H        -1.558714         2.505319         0.076420
 H         1.031960         0.610491         0.606632
 H        -1.899308        -1.142965        -0.904258
 H        -0.791480        -1.707329         0.344390
