19
Iteration:  2953
 O        -3.907434        -1.417288         1.136354
 C        -2.789706        -0.652057         1.138691
 C        -1.950149        -0.563972         2.464807
 C        -1.339755         0.753798         1.879042
 C        -2.744755         0.917167         1.100648
 C        -1.994494         1.346806        -0.156371
 C        -0.867560         0.428554         0.352736
 O         0.424980         0.831480        -0.072896
 C        -1.620117        -0.910270         0.065000
 H        -4.321759        -1.764871         0.284362
 H        -2.663548        -0.195402         3.228776
 H        -1.325897        -1.370682         2.831588
 H        -0.763721         1.518136         2.355533
 H        -3.575549         1.550119         1.287635
 H        -2.292087         1.154716        -1.182829
 H        -1.813928         2.387937        -0.096436
 H         0.639305         1.543251         0.584928
 H        -2.122970        -0.840414        -0.935970
 H        -1.110390        -1.933009         0.168996
