19
Iteration:  3199charge 0 multiplicity 1
 O        -3.929483        -1.288251         1.093591
 C        -2.721296        -0.649936         1.153172
 C        -1.830975        -0.601916         2.462903
 C        -1.459289         0.789663         1.788789
 C        -2.852499         0.843302         1.046582
 C        -2.114389         1.539760        -0.194801
 C        -0.908230         0.529536         0.356289
 O         0.442605         0.569449         0.053745
 C        -1.522314        -0.886558         0.139966
 H        -3.888419        -2.257343         0.818721
 H        -2.358325        -0.464799         3.408905
 H        -0.978904        -1.309004         2.666567
 H        -0.991170         1.526212         2.389921
 H        -3.666462         1.346344         1.448247
 H        -2.388379         1.555994        -1.248088
 H        -2.040304         2.597345         0.141970
 H         0.583438         0.933158        -0.865756
 H        -1.556401        -1.039936        -0.999206
 H        -0.774497        -1.632568         0.526021
