19
Iteration:  4728charge 0 multiplicity 1
 O        -3.944517        -1.403087         0.892848
 C        -2.775558        -0.635993         1.204336
 C        -1.941650        -0.491625         2.597278
 C        -1.324823         0.724710         1.897209
 C        -2.726959         0.880406         1.143005
 C        -2.069163         1.417716        -0.180941
 C        -0.930042         0.508346         0.342194
 O         0.443412         0.628362        -0.051180
 C        -1.540660        -0.800144         0.191471
 H        -4.037227        -1.384163        -0.076310
 H        -2.512307        -0.049441         3.468526
 H        -1.432038        -1.400121         2.922157
 H        -0.939698         1.546272         2.442541
 H        -3.645766         1.342310         1.634259
 H        -2.553081         1.180749        -1.157472
 H        -1.787542         2.539651        -0.255345
 H         0.506098         0.593113        -1.027271
 H        -1.798332        -1.230871        -0.762856
 H        -0.826961        -1.465891         0.688289
