19
Iteration:  3034charge 0 multiplicity 1
 O        -3.818665        -1.569995         1.089600
 C        -2.742466        -0.618566         1.195431
 C        -2.036666        -0.494355         2.571254
 C        -1.510463         0.727671         1.938231
 C        -2.754990         1.036572         1.076464
 C        -1.907281         1.507902        -0.101652
 C        -0.886516         0.503240         0.316491
 O         0.404700         0.647999        -0.220046
 C        -1.637772        -0.874569         0.075165
 H        -3.602984        -2.199645         0.389656
 H        -2.789840        -0.326327         3.366033
 H        -1.380587        -1.337417         2.903622
 H        -0.949501         1.452494         2.576344
 H        -3.781507         1.376712         1.402569
 H        -2.142847         1.494839        -1.210327
 H        -1.411312         2.494646         0.250208
 H         0.802374         1.501880        -0.009084
 H        -2.164656        -0.893500        -0.947251
 H        -0.995635        -1.752647         0.179770
