19
Iteration:  4181
 O        -3.838641        -1.422765         1.172619
 C        -2.690782        -0.558012         1.040743
 C        -1.808359        -0.642642         2.337031
 C        -1.537945         0.753738         1.899138
 C        -2.775173         0.947678         1.022568
 C        -1.993056         1.534749        -0.112288
 C        -0.977589         0.478521         0.340938
 O         0.418387         0.637813         0.188884
 C        -1.625391        -0.882984        -0.083927
 H        -4.658059        -0.907783         1.111966
 H        -2.412509        -0.696010         3.267945
 H        -1.031068        -1.405899         2.443394
 H        -1.102079         1.656685         2.475576
 H        -3.727706         1.333150         1.461078
 H        -2.396839         1.548944        -1.117212
 H        -1.706298         2.585178         0.296789
 H         0.695196        -0.118584        -0.317649
 H        -1.838771        -0.727262        -1.073946
 H        -0.947147        -1.763728         0.018275
