19
Iteration:  2801charge 0 multiplicity 1
 O        -3.849872        -1.341538         0.877230
 C        -2.706938        -0.618947         1.148790
 C        -1.936758        -0.519432         2.524087
 C        -1.341931         0.793427         2.013386
 C        -2.794369         0.928803         1.199979
 C        -2.079455         1.380607        -0.052319
 C        -0.921932         0.484320         0.398194
 O         0.391385         0.609715        -0.261808
 C        -1.580270        -0.879928         0.144980
 H        -3.736602        -2.278370         0.545962
 H        -2.683596        -0.319589         3.337380
 H        -1.420020        -1.422831         2.871401
 H        -0.916128         1.562536         2.592825
 H        -3.677207         1.320552         1.565130
 H        -2.573652         0.990675        -1.003760
 H        -1.810636         2.466104         0.039229
 H         0.435988         1.595758        -0.206396
 H        -1.833777        -0.831037        -0.931106
 H        -0.858566        -1.681301         0.481912
