19
Iteration:   344
 O        -3.828181        -1.427537         1.101579
 C        -2.678522        -0.673643         1.131454
 C        -1.855091        -0.673641         2.436915
 C        -1.449619         0.771788         1.878688
 C        -2.807035         0.930812         1.161390
 C        -2.047057         1.561479        -0.078620
 C        -0.910206         0.588694         0.417887
 O         0.369458         0.573590        -0.200806
 C        -1.613797        -0.840024         0.102833
 H        -4.083872        -1.601233         0.135662
 H        -2.465193        -0.532794         3.326325
 H        -1.138021        -1.485724         2.589816
 H        -1.064740         1.474599         2.637542
 H        -3.565974         1.443665         1.788947
 H        -2.487422         1.476243        -1.040369
 H        -2.019617         2.667183         0.173755
 H         0.634489         1.501843        -0.323308
 H        -1.950605        -1.053459        -0.891451
 H        -0.933385        -1.700549         0.257378
