19
Iteration:  2549charge 0 multiplicity 1
 O        -3.853360        -1.464458         1.218873
 C        -2.660556        -0.641422         1.069616
 C        -1.754314        -0.556006         2.431821
 C        -1.404704         0.829645         1.819900
 C        -2.935558         0.968062         0.965396
 C        -2.062765         1.607774        -0.112653
 C        -0.956064         0.501507         0.372838
 O         0.360574         0.484948         0.049928
 C        -1.611890        -0.890610         0.032798
 H        -4.221879        -1.748945         0.389484
 H        -2.348127        -0.504635         3.380141
 H        -0.919785        -1.293952         2.548847
 H        -0.953694         1.598245         2.422779
 H        -3.827420         1.211036         1.440042
 H        -2.182608         1.640466        -1.223137
 H        -1.768536         2.569122         0.355798
 H         0.836367         1.349467        -0.001759
 H        -1.944233        -0.725686        -1.031507
 H        -0.911503        -1.741191         0.142242
