19
Iteration:  2422
 O        -3.744623        -1.607217         1.276578
 C        -2.797901        -0.635232         1.075057
 C        -1.981500        -0.522900         2.388252
 C        -1.424941         0.677964         1.798377
 C        -2.701775         1.138831         1.042732
 C        -2.020374         1.599828        -0.214269
 C        -0.943674         0.475293         0.327894
 O         0.454864         0.618228         0.110864
 C        -1.688903        -0.913635        -0.005807
 H        -4.406851        -1.868174         0.538812
 H        -2.600864        -0.305362         3.261059
 H        -1.287469        -1.284638         2.627608
 H        -0.800182         1.292905         2.354395
 H        -3.395058         1.816946         1.450764
 H        -2.543314         1.524666        -1.162435
 H        -1.765196         2.675288        -0.193277
 H         0.822622         1.478836         0.379675
 H        -2.153612        -0.943335        -0.954272
 H        -1.270150        -1.897041         0.233044
