19
Iteration:  4834
 O        -3.758769        -1.503049         1.084319
 C        -2.745186        -0.587663         1.116378
 C        -1.885010        -0.498442         2.492419
 C        -1.437826         0.740827         1.831013
 C        -2.772996         1.052799         1.063634
 C        -1.977155         1.465777        -0.229688
 C        -0.994159         0.480737         0.310426
 O         0.363819         0.598652         0.146739
 C        -1.640022        -0.854943         0.103887
 H        -4.366582        -1.306680         0.349280
 H        -2.607685        -0.286842         3.323057
 H        -1.126920        -1.237228         2.877668
 H        -0.848367         1.394946         2.484361
 H        -3.752400         1.422124         1.565079
 H        -2.314013         1.289198        -1.234958
 H        -1.357841         2.343220        -0.185582
 H         0.728326         0.413409        -0.754353
 H        -2.242505        -0.825256        -0.858500
 H        -1.113955        -1.808629         0.164834
