19
Iteration:  4514
 O        -3.873339        -1.419552         1.199326
 C        -2.641004        -0.676658         1.097932
 C        -1.876960        -0.529380         2.446559
 C        -1.497964         0.781368         1.805611
 C        -2.788376         0.943613         0.981375
 C        -2.044787         1.544136        -0.213432
 C        -0.997131         0.500166         0.382539
 O         0.466365         0.525952         0.216948
 C        -1.579696        -0.837021         0.001060
 H        -4.508363        -1.290701         0.429069
 H        -2.529541        -0.330076         3.339245
 H        -1.025531        -1.302959         2.661042
 H        -0.896002         1.559450         2.251135
 H        -3.642568         1.389138         1.450948
 H        -2.407304         1.502602        -1.298731
 H        -1.655111         2.535187        -0.111906
 H         0.502428         0.458834        -0.810109
 H        -2.108989        -0.776813        -0.914438
 H        -0.855129        -1.649487         0.016070
