19
Iteration:  4933charge 0 multiplicity 1
 O        -3.998436        -1.445218         0.929578
 C        -2.717227        -0.703957         1.128981
 C        -1.954680        -0.532080         2.512513
 C        -1.324894         0.734084         1.822393
 C        -2.703782         0.949898         1.161890
 C        -2.047697         1.493025        -0.208447
 C        -0.940708         0.548388         0.320465
 O         0.475239         0.644089        -0.031736
 C        -1.568516        -0.807072         0.135476
 H        -4.055140        -2.088807         1.623772
 H        -2.562901        -0.265538         3.409821
 H        -1.385081        -1.401031         2.839367
 H        -1.000084         1.620505         2.282444
 H        -3.543908         1.463585         1.784327
 H        -2.673118         1.253851        -1.006517
 H        -1.870462         2.562513        -0.164453
 H         1.010783         0.664390         0.747225
 H        -2.130652        -0.885900        -0.844324
 H        -1.077516        -1.772630         0.141584
