19
Iteration:  2409
 O        -3.716580        -1.687804         1.322585
 C        -2.758556        -0.645068         1.080638
 C        -2.034774        -0.520122         2.361115
 C        -1.391287         0.788823         1.735071
 C        -2.748758         1.127420         1.050533
 C        -1.916406         1.612948        -0.158199
 C        -0.921872         0.494641         0.285159
 O         0.471480         0.624128         0.067684
 C        -1.845378        -0.933437         0.011305
 H        -4.100391        -1.844787         0.479147
 H        -2.819527        -0.211981         3.058666
 H        -1.554148        -1.398448         2.737656
 H        -0.973628         1.589759         2.297922
 H        -3.540827         1.548605         1.594899
 H        -2.335965         1.655367        -1.149692
 H        -1.363616         2.490574         0.090137
 H         0.658938         1.268730         0.776884
 H        -2.188007        -0.868055        -1.002332
 H        -1.201079        -1.805986         0.162683
