19
Iteration:  4320charge 0 multiplicity 1
 O        -3.766415        -1.467234         1.134788
 C        -2.716388        -0.624572         1.111423
 C        -1.945329        -0.555358         2.385351
 C        -1.368214         0.758383         1.781675
 C        -2.847473         1.079185         1.059185
 C        -2.157566         1.588091        -0.189254
 C        -0.944716         0.460071         0.313810
 O         0.483830         0.505776         0.134216
 C        -1.609984        -0.887266         0.051675
 H        -4.443732        -1.109923         0.466031
 H        -2.512718        -0.386893         3.300319
 H        -1.249689        -1.443182         2.528771
 H        -0.971692         1.617181         2.376737
 H        -3.661687         1.549143         1.545811
 H        -2.512208         1.212500        -1.191692
 H        -1.709552         2.566393        -0.123956
 H         0.865150         0.760538         1.037727
 H        -1.872692        -0.884401        -1.122099
 H        -1.080463        -1.809005         0.386738
