19
Iteration:  4034
 O        -3.927218        -1.436008         1.064048
 C        -2.809456        -0.643561         1.150149
 C        -1.897399        -0.596156         2.363927
 C        -1.356222         0.710001         1.785951
 C        -2.757633         1.005156         1.100442
 C        -2.060990         1.530264        -0.176299
 C        -0.909469         0.431472         0.378929
 O         0.509410         0.749331         0.128708
 C        -1.698735        -0.842559        -0.035988
 H        -3.810642        -2.010190         1.826776
 H        -2.598462        -0.448559         3.230529
 H        -1.343096        -1.605436         2.479572
 H        -0.826912         1.418070         2.377473
 H        -3.490553         1.479117         1.763413
 H        -2.457612         1.405472        -1.277501
 H        -1.608794         2.535161        -0.098770
 H         1.097983         0.175204         0.606323
 H        -2.057486        -0.806862        -1.153625
 H        -1.096082        -1.763129         0.026019
