19
Iteration:  4100charge 0 multiplicity 1
 O        -3.958650        -1.287278         0.786134
 C        -2.651723        -0.632769         1.192630
 C        -1.981671        -0.610011         2.604448
 C        -1.335430         0.748527         2.004811
 C        -2.724573         0.932938         1.186273
 C        -2.036875         1.435455        -0.076753
 C        -0.921454         0.479435         0.379380
 O         0.311466         0.703129        -0.205388
 C        -1.554155        -0.858541         0.160191
 H        -3.791185        -2.025428         0.135147
 H        -2.687195        -0.390417         3.416247
 H        -1.282810        -1.470473         2.650020
 H        -0.782638         1.463379         2.561103
 H        -3.516282         1.293797         1.828669
 H        -2.510335         1.287329        -1.120751
 H        -1.784544         2.499285        -0.061846
 H         0.927838        -0.077081        -0.057097
 H        -1.657609        -1.036857        -0.976996
 H        -0.850394        -1.605515         0.588110
