19
Iteration:  3371
 O        -4.001542        -1.286081         1.323882
 C        -2.708027        -0.795255         1.086222
 C        -1.898229        -0.675089         2.377662
 C        -1.449643         0.801391         1.795449
 C        -2.810757         0.908560         1.014432
 C        -2.031122         1.445859        -0.232028
 C        -0.905423         0.547319         0.362298
 O         0.419030         0.712835         0.087257
 C        -1.467940        -0.882540        -0.028515
 H        -4.391771        -1.432904         0.480225
 H        -2.526579        -0.613809         3.243378
 H        -0.978744        -1.269265         2.530567
 H        -1.169582         1.577453         2.455791
 H        -3.657647         1.372937         1.478068
 H        -2.339216         1.285889        -1.313510
 H        -1.704356         2.476054        -0.094946
 H         1.093979         0.603070         0.724563
 H        -1.784246        -0.897505        -1.049640
 H        -0.725863        -1.611654         0.142245
