19
Iteration:  3111
 O        -3.903946        -1.379374         1.035462
 C        -2.688965        -0.730002         1.152441
 C        -1.765002        -0.559052         2.485782
 C        -1.480811         0.833663         1.889205
 C        -2.823982         0.875532         1.036520
 C        -2.009452         1.458187        -0.165745
 C        -0.968026         0.497528         0.358596
 O         0.386625         0.591742        -0.009856
 C        -1.547754        -0.873142         0.098374
 H        -4.613104        -0.712007         1.301642
 H        -2.366521        -0.506107         3.394995
 H        -0.926338        -1.290438         2.565273
 H        -1.014031         1.642229         2.470105
 H        -3.814796         1.219988         1.346245
 H        -2.446537         1.207474        -1.157242
 H        -1.819854         2.569928        -0.060686
 H         0.579722         1.573551        -0.087099
 H        -1.804308        -0.926830        -1.012340
 H        -0.839951        -1.701324         0.239994
