19
Iteration:  4738
 O        -3.934168        -1.427759         0.946580
 C        -2.755424        -0.548297         1.126525
 C        -1.994567        -0.560022         2.560198
 C        -1.334804         0.732163         1.809632
 C        -2.787740         1.015458         1.158885
 C        -2.077531         1.403640        -0.142732
 C        -0.882807         0.471784         0.229471
 O         0.452071         0.698199        -0.007684
 C        -1.523296        -0.957826         0.270582
 H        -3.990674        -1.404891        -0.008012
 H        -2.486422        -0.066489         3.463137
 H        -1.478169        -1.514893         2.805851
 H        -0.875358         1.470701         2.421988
 H        -3.406936         1.626807         1.914603
 H        -2.489094         1.144930        -1.137890
 H        -1.982672         2.524908         0.066352
 H         0.599723         0.590769        -0.943547
 H        -1.828294        -1.183248        -0.721927
 H        -0.826870        -1.679611         0.641229
