19
Iteration:  1137charge 0 multiplicity 1
 O        -3.785928        -1.448636         0.817204
 C        -2.727966        -0.595691         1.238150
 C        -2.064403        -0.623955         2.582678
 C        -1.358406         0.634438         2.032377
 C        -2.689832         0.980698         1.267459
 C        -1.999827         1.517310         0.037653
 C        -0.896650         0.542451         0.265967
 O         0.229115         0.681473        -0.496734
 C        -1.552403        -0.876640         0.348210
 H        -3.564853        -1.650329        -0.147510
 H        -2.630993        -0.264726         3.466959
 H        -1.531774        -1.569195         2.864871
 H        -0.837300         1.329874         2.601442
 H        -3.585556         1.401078         1.807430
 H        -2.341226         1.333704        -1.047758
 H        -1.763180         2.636378         0.148501
 H         0.640600         1.571352        -0.447129
 H        -1.858722        -1.240921        -0.670468
 H        -0.900361        -1.700056         0.686525
