19
Iteration:  3267charge 0 multiplicity 1
 O        -3.962049        -1.461447         1.100401
 C        -2.755271        -0.716276         1.140992
 C        -1.910616        -0.500149         2.495485
 C        -1.454800         0.761592         1.896552
 C        -2.752300         0.959927         1.086548
 C        -1.994511         1.525169        -0.152136
 C        -0.967156         0.540367         0.320685
 O         0.443264         0.687015        -0.060338
 C        -1.528409        -0.867428         0.117114
 H        -3.834683        -1.971148         0.291586
 H        -2.618282        -0.415856         3.356836
 H        -1.382895        -1.414253         2.745607
 H        -0.824134         1.516530         2.455698
 H        -3.646018         1.457622         1.461127
 H        -2.261324         1.575182        -1.232803
 H        -1.781415         2.605393         0.133086
 H         0.717046        -0.070756        -0.631662
 H        -1.642363        -1.159123        -0.952371
 H        -0.826191        -1.645688         0.547694
