19
Iteration:  1482
 O        -3.986932        -1.142567         0.894214
 C        -2.619308        -0.737428         1.162987
 C        -1.784909        -0.466737         2.681521
 C        -1.407648         0.756174         1.831595
 C        -2.664023         0.786184         1.110069
 C        -2.212849         1.168133        -0.244095
 C        -0.922392         0.381483         0.313563
 O         0.277058         0.981632        -0.117630
 C        -1.446205        -1.056086         0.237529
 H        -4.641528        -0.376882         1.112694
 H        -2.517547        -0.068671         3.448015
 H        -1.286441        -1.228454         3.332235
 H        -0.980404         1.616057         2.187895
 H        -3.569874         1.003039         1.525908
 H        -2.628832         0.515826        -1.113278
 H        -1.891227         2.170935        -0.487108
 H         1.108016         0.734401         0.301699
 H        -1.436679        -1.343209        -0.821172
 H        -0.865620        -1.898778         0.630816
