19
Iteration:  4052charge 0 multiplicity 1
 O        -3.947073        -1.314514         1.016320
 C        -2.758530        -0.607153         1.033330
 C        -1.912472        -0.649995         2.401611
 C        -1.362642         0.634630         1.877243
 C        -2.720410         0.965895         1.142445
 C        -1.918267         1.434137        -0.101379
 C        -0.963617         0.490176         0.319984
 O         0.343920         0.785127         0.014131
 C        -1.593758        -0.892016         0.070648
 H        -3.740718        -2.113142         1.533712
 H        -2.563982        -0.374693         3.234051
 H        -1.158116        -1.366528         2.540945
 H        -0.723824         1.456450         2.304262
 H        -3.667550         1.506283         1.344422
 H        -2.380148         1.351706        -1.021003
 H        -1.739183         2.493103        -0.000659
 H         0.794341         0.460396         0.792274
 H        -2.082659        -1.088210        -0.858770
 H        -1.088441        -1.834284         0.380876
