19
Iteration:  1016charge 0 multiplicity 1
 O        -3.836391        -1.601922         1.170807
 C        -2.716193        -0.717834         1.125287
 C        -1.944773        -0.552543         2.467685
 C        -1.385992         0.800695         1.869255
 C        -2.736632         0.975901         1.131498
 C        -2.018720         1.605926        -0.087480
 C        -0.950482         0.605837         0.393087
 O         0.398331         0.582831        -0.266979
 C        -1.659169        -0.841701         0.093881
 H        -4.090986        -1.812040         0.229607
 H        -2.720539        -0.223470         3.167297
 H        -1.259885        -1.342579         2.803805
 H        -0.991930         1.527042         2.505014
 H        -3.616916         1.542859         1.604210
 H        -2.279612         1.586763        -1.129615
 H        -1.684899         2.566803         0.299647
 H         0.969382         0.998138         0.377769
 H        -2.055864        -0.844869        -0.934202
 H        -1.067733        -1.699612         0.365442
