19
Iteration:  2354charge 0 multiplicity 1
 O        -3.839408        -1.346852         1.015759
 C        -2.703225        -0.592154         1.108768
 C        -1.899813        -0.509393         2.516026
 C        -1.469692         0.815377         1.913771
 C        -2.814715         0.962663         1.149179
 C        -2.118449         1.323622        -0.170720
 C        -0.945690         0.482577         0.273569
 O         0.383982         0.677976        -0.097751
 C        -1.490384        -0.914721         0.213799
 H        -4.023667        -1.367649         0.066640
 H        -2.460462        -0.531225         3.449662
 H        -1.046701        -1.153663         2.621377
 H        -0.861267         1.519866         2.490952
 H        -3.716598         1.386288         1.612116
 H        -2.625386         1.148128        -1.114111
 H        -1.836486         2.352484        -0.181978
 H         0.783731        -0.192025         0.191529
 H        -1.619312        -1.139145        -0.838162
 H        -0.759601        -1.609251         0.632655
