19
Iteration:  4493
 O        -3.833260        -1.534839         1.188446
 C        -2.739693        -0.614068         1.060586
 C        -1.892352        -0.479894         2.353282
 C        -1.443899         0.866485         1.838406
 C        -2.790250         1.044132         1.106106
 C        -1.929906         1.465612        -0.144522
 C        -0.939991         0.445481         0.344259
 O         0.428022         0.619355         0.191039
 C        -1.716050        -0.905411        -0.042108
 H        -4.450415        -1.620865         0.470729
 H        -2.581807        -0.359251         3.227788
 H        -1.130349        -1.299456         2.676633
 H        -0.899395         1.629604         2.411262
 H        -3.625643         1.594760         1.418034
 H        -2.225540         1.312735        -1.274333
 H        -1.661434         2.505650        -0.154960
 H         1.015237         0.300318        -0.518460
 H        -1.981440        -0.900635        -1.088755
 H        -1.300409        -1.865622         0.257190
