19
Iteration:  2709charge 0 multiplicity 1
 O        -3.958289        -1.352863         1.140246
 C        -2.691354        -0.704000         1.094071
 C        -1.877061        -0.638302         2.406942
 C        -1.454370         0.702247         1.870791
 C        -2.777506         0.956364         1.051542
 C        -2.078276         1.591695        -0.134291
 C        -0.919762         0.490477         0.284794
 O         0.459895         0.675358        -0.032257
 C        -1.545824        -0.907611         0.079533
 H        -3.764024        -2.232605         1.416559
 H        -2.459158        -0.603680         3.318269
 H        -1.119801        -1.425022         2.517782
 H        -0.953138         1.609483         2.335413
 H        -3.730237         1.384159         1.554932
 H        -2.576563         1.459746        -1.084488
 H        -1.878935         2.636830         0.077125
 H         0.730507         1.386973         0.568552
 H        -1.955309        -0.984299        -0.941969
 H        -0.942625        -1.762078         0.335551
