19
Iteration:  3552
 O        -3.770260        -1.518909         1.212125
 C        -2.781590        -0.607468         1.084606
 C        -1.946085        -0.461339         2.429550
 C        -1.491555         0.790164         1.841203
 C        -2.879217         0.931317         1.010151
 C        -1.922108         1.537768        -0.138078
 C        -0.924171         0.505880         0.373951
 O         0.418077         0.516465        -0.065124
 C        -1.570219        -0.865116         0.071063
 H        -4.663912        -1.265862         0.809521
 H        -2.578824        -0.234045         3.284485
 H        -1.176273        -1.229585         2.462616
 H        -1.325478         1.662917         2.389514
 H        -3.906332         1.377878         1.137108
 H        -2.102698         1.711414        -1.179248
 H        -1.710078         2.513823         0.249590
 H         1.144419         0.724247         0.593172
 H        -1.553460        -0.922707        -1.053071
 H        -1.062325        -1.766173         0.557620
