19
Iteration:  1945charge 0 multiplicity 1
 O        -3.722449        -1.575043         1.036130
 C        -2.714593        -0.630518         1.190461
 C        -1.927651        -0.450400         2.485238
 C        -1.424965         0.790855         1.782596
 C        -2.818775         0.997936         1.084281
 C        -2.046920         1.547192        -0.230911
 C        -0.965102         0.514491         0.335413
 O         0.402343         0.578135        -0.037051
 C        -1.622495        -0.862672         0.139742
 H        -4.443655        -1.323640         1.678832
 H        -2.637929        -0.151656         3.257906
 H        -1.266415        -1.271820         2.752408
 H        -0.885307         1.641871         2.240153
 H        -3.716779         1.371799         1.564430
 H        -2.401957         1.265872        -1.210466
 H        -1.884509         2.641272        -0.099503
 H         0.882482         0.019989         0.586515
 H        -2.003168        -0.890442        -0.889793
 H        -1.020695        -1.720990         0.355957
