19
Iteration:  4855
 O        -3.929944        -1.476312         1.088464
 C        -2.770177        -0.654557         1.176821
 C        -2.027929        -0.515437         2.503643
 C        -1.407669         0.824008         1.801461
 C        -2.713682         0.970428         1.045684
 C        -2.030029         1.428563        -0.120508
 C        -0.872390         0.507958         0.417438
 O         0.564361         0.702249        -0.042753
 C        -1.641337        -0.898116         0.105710
 H        -3.986794        -1.544011         0.130338
 H        -2.770351        -0.302002         3.279911
 H        -1.448948        -1.445571         2.714437
 H        -0.971039         1.649483         2.401833
 H        -3.544995         1.359960         1.685831
 H        -2.516956         1.205648        -1.077366
 H        -1.939736         2.491676         0.030833
 H         0.837423         0.212898        -0.796050
 H        -2.044173        -0.958328        -0.968295
 H        -0.953122        -1.716818         0.385642
