19
Iteration:  3510
 O        -3.874156        -1.416879         1.075007
 C        -2.752134        -0.580910         1.166015
 C        -1.903216        -0.549130         2.540786
 C        -1.336903         0.735300         1.807418
 C        -2.768350         0.948019         1.042059
 C        -2.099420         1.395443        -0.278992
 C        -0.932941         0.469513         0.287152
 O         0.467494         0.787779         0.057604
 C        -1.615061        -0.968428         0.115005
 H        -4.489969        -1.082603         0.383108
 H        -2.652694        -0.180390         3.226655
 H        -1.252032        -1.312270         2.969999
 H        -0.731155         1.443271         2.297380
 H        -3.441650         1.579644         1.667008
 H        -2.529874         0.958551        -1.203983
 H        -1.913503         2.442890        -0.309861
 H         0.802285         0.330324         0.845001
 H        -2.176516        -1.123044        -0.849395
 H        -0.959153        -1.865902         0.370409
