19
Iteration:  2097
 O        -3.832751        -1.422914         1.248890
 C        -2.730907        -0.686670         1.093605
 C        -1.942319        -0.531883         2.458159
 C        -1.603961         0.906275         1.771319
 C        -2.887770         0.915744         0.946450
 C        -2.030068         1.554094        -0.133332
 C        -0.857356         0.503886         0.340506
 O         0.497019         0.550422        -0.095005
 C        -1.532016        -0.898458         0.068962
 H        -3.579488        -2.129874         1.877687
 H        -2.688863        -0.363310         3.268720
 H        -1.193048        -1.298304         2.833735
 H        -1.374022         1.642007         2.453757
 H        -3.720287         1.445893         1.254848
 H        -2.338115         1.571195        -1.156309
 H        -1.915730         2.627163         0.133688
 H         1.018254         0.520906         0.754891
 H        -1.852465        -1.035753        -1.025015
 H        -0.724724        -1.657888         0.256717
