19
Iteration:  3786charge 0 multiplicity 1
 O        -3.896686        -1.283901         0.870790
 C        -2.713661        -0.614905         1.128975
 C        -1.942434        -0.558715         2.530781
 C        -1.284386         0.661473         1.868954
 C        -2.655278         0.951730         1.116567
 C        -2.115879         1.346670        -0.248064
 C        -0.958853         0.398676         0.339312
 O         0.324576         0.878231        -0.007950
 C        -1.562346        -1.007365         0.229793
 H        -4.624138        -0.897440         1.334437
 H        -2.610502        -0.333204         3.385532
 H        -1.360416        -1.465414         2.865478
 H        -0.880839         1.529888         2.565296
 H        -3.330491         1.400742         1.863468
 H        -2.604203         0.963902        -1.186648
 H        -1.721387         2.341720        -0.402378
 H         1.115870         0.364451         0.060060
 H        -1.964050        -1.247330        -0.831022
 H        -0.825434        -1.769352         0.605847
