19
Iteration:  4799charge 0 multiplicity 1
 O        -3.927007        -1.497085         1.223753
 C        -2.715012        -0.607177         1.068513
 C        -1.855709        -0.517346         2.414766
 C        -1.494639         0.801641         1.817859
 C        -2.842670         0.934035         0.976865
 C        -2.070223         1.558061        -0.203402
 C        -0.883741         0.559564         0.316738
 O         0.608187         0.539050         0.171035
 C        -1.662187        -0.887786         0.063042
 H        -4.678424        -1.391419         0.616562
 H        -2.502241        -0.350626         3.249490
 H        -1.027462        -1.249528         2.551191
 H        -1.109709         1.583849         2.573845
 H        -3.742152         1.145669         1.545606
 H        -2.503714         1.515600        -1.230352
 H        -1.839487         2.556658         0.037475
 H         1.038126         0.569672        -0.715345
 H        -2.009680        -0.882190        -1.042863
 H        -0.979732        -1.747306         0.330982
