19
Iteration:  3541charge 0 multiplicity 1
 O        -3.850699        -1.554778         1.206796
 C        -2.735628        -0.608892         1.101701
 C        -1.925863        -0.497309         2.395246
 C        -1.482644         0.844087         1.799387
 C        -2.850977         0.977621         0.999700
 C        -1.909847         1.459771        -0.152483
 C        -0.932031         0.472131         0.408376
 O         0.426081         0.606575        -0.043344
 C        -1.572248        -0.853915         0.065853
 H        -4.726050        -1.240896         0.890796
 H        -2.693363        -0.521953         3.170266
 H        -1.191060        -1.198006         2.803422
 H        -0.972092         1.657408         2.277873
 H        -3.619402         1.688548         1.435951
 H        -2.151643         1.306864        -1.197649
 H        -1.590385         2.448277         0.097937
 H         0.790811         0.722565         0.881539
 H        -1.990512        -0.936304        -0.986042
 H        -0.901073        -1.766187         0.267492
