19
Iteration:  1165
 O        -3.873261        -1.343600         0.764202
 C        -2.656172        -0.624080         1.153708
 C        -1.830178        -0.616114         2.564863
 C        -1.380479         0.704384         1.984678
 C        -2.710455         0.982713         1.274287
 C        -2.172601         1.495561         0.061772
 C        -0.940594         0.540463         0.326732
 O         0.253493         0.527081        -0.285129
 C        -1.516278        -0.813681         0.214997
 H        -3.608692        -2.253042         0.378302
 H        -2.419578        -0.442548         3.477533
 H        -1.137373        -1.389774         2.867552
 H        -0.772810         1.633142         2.407862
 H        -3.626398         1.382222         1.743329
 H        -2.714512         1.279262        -0.852241
 H        -2.008663         2.539572         0.005581
 H         0.513770         1.406585        -0.564650
 H        -1.682200        -0.911011        -0.866118
 H        -0.903431        -1.693814         0.429587
