19
Iteration:  4709
 O        -3.870059        -1.335233         0.972176
 C        -2.624051        -0.694657         1.119059
 C        -1.946047        -0.530715         2.520517
 C        -1.485636         0.865575         1.901926
 C        -2.786498         0.996562         1.093497
 C        -2.024278         1.426074        -0.109701
 C        -0.897809         0.490354         0.427405
 O         0.396256         0.576296        -0.057976
 C        -1.549278        -0.973166         0.193478
 H        -3.889104        -1.380265        -0.028131
 H        -2.692857        -0.387968         3.302213
 H        -1.194583        -1.223376         2.850580
 H        -1.000120         1.641581         2.505823
 H        -3.655553         1.429809         1.555407
 H        -2.366504         1.238881        -1.149353
 H        -1.927657         2.549017        -0.054335
 H         0.253171         0.561691        -1.063464
 H        -2.021383        -0.812530        -0.844323
 H        -0.909127        -1.917119         0.227153
