19
Iteration:  3835charge 0 multiplicity 1
 O        -3.825872        -1.574194         0.962639
 C        -2.769645        -0.625757         1.132752
 C        -1.941276        -0.549431         2.467550
 C        -1.486324         0.791318         1.892544
 C        -2.763285         1.024522         1.016003
 C        -1.927259         1.599273        -0.145125
 C        -0.893156         0.640273         0.408910
 O         0.415875         0.556146        -0.114392
 C        -1.637672        -0.855362         0.213971
 H        -4.386310        -1.787583         1.762030
 H        -2.394466        -0.380431         3.433359
 H        -1.354708        -1.452371         2.614702
 H        -1.029261         1.527528         2.492937
 H        -3.677220         1.570355         1.276591
 H        -2.220440         1.428047        -1.179034
 H        -1.809135         2.626791         0.262735
 H         0.761893        -0.383927        -0.190105
 H        -1.889945        -0.865458        -0.803558
 H        -1.165515        -1.770642         0.580353
