19
Iteration:   831charge 0 multiplicity 1
 O        -3.955992        -1.320051         0.990537
 C        -2.715427        -0.637174         1.218171
 C        -1.904529        -0.571515         2.505494
 C        -1.333754         0.765256         1.833038
 C        -2.774237         0.943009         1.165689
 C        -2.148565         1.355140        -0.156637
 C        -0.888832         0.480908         0.314436
 O         0.410617         0.855198        -0.152491
 C        -1.522024        -1.012186         0.202590
 H        -3.858540        -1.800635         0.142981
 H        -2.494796        -0.121549         3.351307
 H        -1.262895        -1.433961         2.827475
 H        -0.899486         1.517419         2.437608
 H        -3.695963         1.327382         1.701457
 H        -2.719891         0.942495        -1.008925
 H        -2.004546         2.482157        -0.244853
 H         1.086171         0.270003         0.192499
 H        -1.810770        -1.317826        -0.860445
 H        -0.919459        -1.776348         0.726788
