19
Iteration:  4029charge 0 multiplicity 1
 O        -3.931569        -1.462509         1.072113
 C        -2.829271        -0.655992         1.123970
 C        -1.920822        -0.610529         2.408602
 C        -1.408897         0.725263         1.821954
 C        -2.737701         0.988472         1.143906
 C        -2.056499         1.562138        -0.217587
 C        -0.914129         0.452360         0.349262
 O         0.573325         0.728909         0.123620
 C        -1.675837        -0.838705        -0.060501
 H        -3.858278        -1.974866         1.933161
 H        -2.597029        -0.513929         3.244766
 H        -1.235595        -1.417549         2.396877
 H        -0.815933         1.637000         2.201111
 H        -3.559719         1.487620         1.701650
 H        -2.489996         1.525750        -1.155332
 H        -1.765487         2.621660        -0.104732
 H         1.119770        -0.023787         0.543488
 H        -2.210964        -0.770298        -0.960494
 H        -1.089348        -1.786246        -0.097280
