19
Iteration:  3009charge 0 multiplicity 1
 O        -3.865093        -1.378100         0.931659
 C        -2.656833        -0.648138         1.102809
 C        -1.917191        -0.545955         2.521367
 C        -1.515337         0.831412         1.957731
 C        -2.777834         0.888213         1.179106
 C        -2.075914         1.493892        -0.058467
 C        -0.880607         0.588052         0.417995
 O         0.360643         0.483037        -0.252621
 C        -1.458567        -0.839754         0.256104
 H        -3.966609        -1.884677         0.148418
 H        -2.654938        -0.318664         3.319687
 H        -1.227675        -1.313435         2.913031
 H        -1.226011         1.747355         2.506738
 H        -3.867069         1.061527         1.499739
 H        -2.467890         1.159678        -1.025148
 H        -1.822086         2.545599         0.020539
 H         0.503677         1.260369        -0.785160
 H        -1.760751        -0.920740        -0.850624
 H        -0.801025        -1.713136         0.540953
