19
Iteration:  2180
 O        -3.953261        -1.353223         1.090038
 C        -2.694766        -0.767442         1.135178
 C        -1.952649        -0.468953         2.567861
 C        -1.487643         0.818394         1.888294
 C        -2.803542         0.862555         0.997325
 C        -1.992362         1.330828        -0.190744
 C        -0.948651         0.487397         0.442062
 O         0.364621         0.786112        -0.251376
 C        -1.368807        -0.900934         0.261025
 H        -4.425730        -0.826632         0.435108
 H        -2.658642        -0.361584         3.429518
 H        -1.173581        -1.225323         2.822556
 H        -1.118044         1.652366         2.573517
 H        -3.742224         1.308803         1.505420
 H        -2.377350         1.028611        -1.208972
 H        -1.654361         2.366845        -0.027768
 H         0.960346         0.031756        -0.318050
 H        -1.505728        -1.061787        -0.796773
 H        -0.662215        -1.658388         0.624429
