19
Iteration:  1229charge 0 multiplicity 1
 O        -3.893876        -1.466276         1.356574
 C        -2.791981        -0.723011         1.057027
 C        -1.827158        -0.750915         2.212824
 C        -1.433079         0.690561         1.716367
 C        -2.733692         1.063952         1.124928
 C        -1.992027         1.562702        -0.208451
 C        -0.943412         0.514837         0.294271
 O         0.406586         0.796780         0.127788
 C        -1.687331        -0.794243        -0.037673
 H        -3.738008        -2.041942         2.153598
 H        -2.588030        -0.840724         3.063273
 H        -1.224682        -1.700453         2.268152
 H        -0.872794         1.393329         2.429785
 H        -3.554759         1.594376         1.610835
 H        -2.297272         1.515854        -1.279802
 H        -1.513228         2.554640         0.014896
 H         0.898677         0.587237         0.934206
 H        -2.059378        -0.819464        -1.108226
 H        -1.107154        -1.770491        -0.075674
