19
Iteration:  4652
 O        -3.880399        -1.539378         1.250145
 C        -2.763805        -0.629630         1.073202
 C        -1.928631        -0.485997         2.466625
 C        -1.408927         0.755418         1.754346
 C        -2.749728         0.988573         1.061906
 C        -1.984512         1.481349        -0.206307
 C        -0.939957         0.483906         0.275957
 O         0.498667         0.639352         0.240470
 C        -1.675223        -0.824165        -0.060786
 H        -4.418263        -1.524186         0.446450
 H        -2.733308        -0.343474         3.218010
 H        -1.197481        -1.173231         2.783485
 H        -0.798248         1.500891         2.213102
 H        -3.603753         1.538025         1.576288
 H        -2.462904         1.389097        -1.205108
 H        -1.787666         2.639154        -0.061739
 H         1.037608         0.341381        -0.491875
 H        -2.095499        -0.872041        -1.121591
 H        -1.170962        -1.813573         0.104208
