19
Iteration:   539
 O        -3.857999        -1.498216         1.244246
 C        -2.721527        -0.699523         1.090116
 C        -1.733321        -0.615811         2.320397
 C        -1.426894         0.747922         1.715012
 C        -2.793247         0.989934         1.115600
 C        -2.054665         1.582582        -0.183851
 C        -1.027984         0.609698         0.289686
 O         0.378798         0.619789         0.259703
 C        -1.677624        -0.783440        -0.118049
 H        -3.410861        -2.124621         1.909591
 H        -2.316504        -0.628078         3.237006
 H        -0.895063        -1.334730         2.354875
 H        -0.753809         1.524991         2.076339
 H        -3.707890         1.380584         1.760321
 H        -2.493991         1.477986        -1.133949
 H        -1.795420         2.652407         0.025554
 H         0.581259        -0.116845        -0.335174
 H        -2.092207        -0.640694        -1.065380
 H        -0.983774        -1.589508         0.041356
