19
Iteration:  2557charge 0 multiplicity 1
 O        -3.834035        -1.432829         1.236859
 C        -2.710272        -0.634957         1.131387
 C        -1.662307        -0.582726         2.373070
 C        -1.427325         0.787291         1.794402
 C        -2.931097         0.945111         0.965654
 C        -2.134223         1.582399        -0.154827
 C        -0.982167         0.577389         0.339799
 O         0.394375         0.410852         0.124224
 C        -1.598857        -0.804964         0.023286
 H        -4.179795        -1.558942         0.326314
 H        -2.277252        -0.568721         3.268317
 H        -0.791531        -1.285823         2.423152
 H        -0.842171         1.462297         2.527805
 H        -3.992819         1.378056         1.175691
 H        -2.317557         1.697219        -1.283882
 H        -2.041275         2.650787         0.292129
 H         0.878962         1.269769         0.322397
 H        -1.903692        -1.005926        -1.038890
 H        -0.897869        -1.613576         0.219416
