19
Iteration:  2127charge 0 multiplicity 1
 O        -3.849311        -1.474257         0.862482
 C        -2.787742        -0.618578         1.219422
 C        -1.877588        -0.475021         2.573314
 C        -1.325597         0.878539         1.801164
 C        -2.726273         1.000289         1.111736
 C        -2.033682         1.318193        -0.231168
 C        -0.960065         0.458115         0.372995
 O         0.312100         0.720784        -0.091494
 C        -1.578556        -0.941922         0.206427
 H        -4.229586        -1.945867         1.612697
 H        -2.530967         0.006138         3.327494
 H        -1.113182        -1.265479         2.812949
 H        -0.890990         1.680252         2.401618
 H        -3.506997         1.599365         1.603207
 H        -2.494086         0.902681        -1.172731
 H        -1.887198         2.404247        -0.405336
 H         0.904576         0.709729         0.663722
 H        -2.011933        -1.171211        -0.786161
 H        -0.923960        -1.778611         0.617125
