19
Iteration:    96charge 0 multiplicity 1
 O        -3.925925        -1.336038         1.024318
 C        -2.655481        -0.675478         1.165817
 C        -1.885398        -0.516709         2.434801
 C        -1.382211         0.799200         1.772340
 C        -2.710790         0.886091         1.147246
 C        -2.173883         1.364838        -0.185380
 C        -0.951657         0.509135         0.292169
 O         0.431680         0.802671         0.038434
 C        -1.552254        -0.957832         0.146801
 H        -4.194865        -1.955938         1.785485
 H        -2.477598        -0.385508         3.347421
 H        -1.186194        -1.313100         2.798562
 H        -0.815079         1.670124         2.190684
 H        -3.533354         1.332302         1.568670
 H        -2.812641         1.237732        -1.165514
 H        -2.108902         2.418264        -0.106425
 H         0.936790         0.084962        -0.395123
 H        -1.883530        -1.009968        -0.910935
 H        -1.026777        -1.924656         0.268103
