19
Iteration:   655
 O        -3.991457        -1.243200         1.019496
 C        -2.618028        -0.691014         1.219698
 C        -1.835552        -0.614414         2.522166
 C        -1.318973         0.715489         1.801793
 C        -2.739783         0.819602         1.149307
 C        -2.161584         1.249458        -0.222876
 C        -0.928478         0.521887         0.321272
 O         0.355682         0.904418         0.013682
 C        -1.500848        -1.006140         0.120828
 H        -4.482601        -0.423258         0.806356
 H        -2.456990        -0.368087         3.431534
 H        -1.109395        -1.435059         2.599385
 H        -0.996537         1.677925         2.343199
 H        -3.574699         1.184900         1.722051
 H        -2.627093         0.944308        -1.254805
 H        -1.887895         2.306723        -0.230374
 H         0.557533         0.888749        -0.918252
 H        -1.972895        -1.107714        -0.894465
 H        -0.788656        -1.665270         0.596643
