19
Iteration:   485
 O        -3.950263        -1.306626         0.923462
 C        -2.700823        -0.688888         1.227395
 C        -1.901016        -0.608749         2.495083
 C        -1.277162         0.721464         1.983491
 C        -2.703983         0.925799         1.176944
 C        -2.050538         1.381959        -0.085319
 C        -0.931924         0.499980         0.304726
 O         0.265365         0.807659        -0.196594
 C        -1.521491        -0.932139         0.210495
 H        -3.606488        -2.167555         0.451321
 H        -2.656109        -0.385603         3.236807
 H        -1.298028        -1.460548         2.802637
 H        -0.788364         1.404161         2.700920
 H        -3.588000         1.528776         1.732902
 H        -2.643103         1.173340        -0.944537
 H        -1.796856         2.498594        -0.138023
 H         0.188477         1.218684        -1.086816
 H        -1.753493        -1.138949        -0.788429
 H        -0.811865        -1.754089         0.322759
