19
Iteration:  1647
 O        -4.057423        -1.150003         1.102674
 C        -2.689339        -0.720269         1.152291
 C        -1.962710        -0.562297         2.526577
 C        -1.346903         0.787594         1.928401
 C        -2.754833         0.851435         1.063036
 C        -2.061413         1.237588        -0.238516
 C        -0.891998         0.495795         0.308437
 O         0.394734         0.912815        -0.092671
 C        -1.361283        -1.110815         0.165999
 H        -4.222388        -2.059015         0.948614
 H        -2.681678        -0.332369         3.321849
 H        -1.181874        -1.241121         2.876973
 H        -0.956540         1.550636         2.553831
 H        -3.639970         1.267968         1.502690
 H        -2.438911         0.832249        -1.213889
 H        -1.787015         2.308823        -0.226718
 H         0.051802         1.435284        -0.873551
 H        -1.761236        -1.275380        -0.828893
 H        -0.708498        -1.907751         0.579293
