19
Iteration:  1645
 O        -4.037912        -1.138908         1.110030
 C        -2.681087        -0.726006         1.145441
 C        -1.950705        -0.555525         2.517877
 C        -1.356844         0.784113         1.908330
 C        -2.768251         0.832787         1.066597
 C        -2.053368         1.244899        -0.237392
 C        -0.900266         0.504275         0.314195
 O         0.395060         0.903593        -0.071134
 C        -1.381915        -1.106484         0.157646
 H        -4.240353        -2.060930         0.968916
 H        -2.652580        -0.307308         3.350753
 H        -1.163286        -1.217151         2.913155
 H        -0.964901         1.531651         2.500767
 H        -3.623464         1.258106         1.463672
 H        -2.455823         0.867001        -1.246973
 H        -1.883006         2.337320        -0.212967
 H         0.096688         1.378571        -0.872354
 H        -1.761798        -1.284400        -0.886652
 H        -0.707214        -1.941680         0.602806
