19
Iteration:  1835
 O        -3.680004        -1.398484         0.645775
 C        -2.656914        -0.596420         1.227511
 C        -1.983949        -0.512484         2.679815
 C        -1.377081         0.753596         1.958747
 C        -2.790300         1.020252         1.222156
 C        -2.081128         1.463676        -0.059783
 C        -0.997249         0.499008         0.369264
 O         0.292787         0.521591        -0.362260
 C        -1.533677        -0.887189         0.319848
 H        -4.201619        -1.894120         1.349763
 H        -2.603391        -0.354830         3.567612
 H        -1.353375        -1.394618         2.919094
 H        -0.958752         1.563204         2.674377
 H        -3.820024         1.276769         1.712907
 H        -2.567890         1.216791        -1.024920
 H        -1.566093         2.501995        -0.027633
 H         0.398763         1.444501        -0.715923
 H        -1.998603        -1.066570        -0.665188
 H        -0.835692        -1.632529         0.713994
