19
Iteration:  4916
 O        -3.963276        -1.362653         0.845739
 C        -2.780185        -0.608236         1.183011
 C        -1.840174        -0.505029         2.584117
 C        -1.389459         0.769494         1.889995
 C        -2.776144         0.932694         1.122438
 C        -2.084757         1.376121        -0.116162
 C        -0.854476         0.468995         0.373370
 O         0.451846         0.720008        -0.089025
 C        -1.663698        -0.892267         0.061751
 H        -3.927826        -2.186530         1.320122
 H        -2.500768        -0.207818         3.424313
 H        -1.109083        -1.293584         2.913898
 H        -0.764257         1.481689         2.518128
 H        -3.597722         1.430733         1.520571
 H        -2.347807         1.027489        -1.155534
 H        -1.860028         2.474868        -0.075827
 H         0.972951         0.251243         0.552121
 H        -1.855808        -1.017677        -0.990433
 H        -0.918874        -1.650798         0.341983
