19
Iteration:   172
 O        -3.774005        -1.550388         1.074129
 C        -2.680999        -0.635953         1.234989
 C        -2.011630        -0.512424         2.559749
 C        -1.402111         0.835715         1.817200
 C        -2.802370         0.982566         1.115391
 C        -2.075443         1.491859        -0.121469
 C        -0.928132         0.512557         0.326879
 O         0.356502         0.534245        -0.237425
 C        -1.536070        -0.824472         0.152914
 H        -3.989701        -1.511864         0.142789
 H        -2.773657        -0.229352         3.319205
 H        -1.287562        -1.332633         2.858407
 H        -1.057614         1.659766         2.477567
 H        -3.568780         1.525167         1.549570
 H        -2.610791         1.368316        -1.169247
 H        -1.819125         2.495978         0.160803
 H         0.943379         0.980687         0.404141
 H        -1.995311        -0.897397        -0.871984
 H        -0.670640        -1.491433         0.381684
