19
Iteration:  3968charge 0 multiplicity 1
 O        -3.816200        -1.521838         0.826735
 C        -2.740359        -0.645228         1.176603
 C        -1.966031        -0.552764         2.499290
 C        -1.403935         0.729613         1.975242
 C        -2.766383         1.056732         1.204205
 C        -2.036433         1.522753        -0.120360
 C        -0.942415         0.453585         0.341434
 O         0.467551         0.701269        -0.155362
 C        -1.615083        -0.871035         0.193481
 H        -4.756030        -1.277777         1.037880
 H        -2.584190        -0.150212         3.372481
 H        -1.344535        -1.383032         2.994499
 H        -0.920735         1.476571         2.545800
 H        -3.600156         1.700155         1.541345
 H        -2.649471         1.405088        -1.118909
 H        -1.667881         2.563343         0.075508
 H         0.916467        -0.167027        -0.430139
 H        -2.061850        -1.230842        -0.820024
 H        -0.850645        -1.612255         0.483446
