19
Iteration:  4925charge 0 multiplicity 1
 O        -4.015747        -1.429063         0.876801
 C        -2.772004        -0.664850         1.120616
 C        -1.912413        -0.517403         2.596679
 C        -1.313492         0.728284         1.851746
 C        -2.699608         0.927885         1.138595
 C        -2.083486         1.429023        -0.134560
 C        -0.938136         0.547161         0.344223
 O         0.497779         0.681305        -0.067943
 C        -1.606583        -0.837568         0.110174
 H        -3.964928        -2.130480         1.517906
 H        -2.577954        -0.204756         3.481328
 H        -1.106834        -1.259953         2.821532
 H        -0.886960         1.653335         2.267359
 H        -3.547874         1.483035         1.520787
 H        -2.558864         1.078235        -1.049548
 H        -1.813917         2.492812        -0.281622
 H         0.925193         0.452650         0.737082
 H        -2.091153        -0.733358        -0.850579
 H        -0.934891        -1.696599         0.223995
