19
Iteration:  2245charge 0 multiplicity 1
 O        -3.702960        -1.664939         1.158491
 C        -2.701575        -0.652034         1.167424
 C        -1.882345        -0.372114         2.453748
 C        -1.438527         0.935820         1.770893
 C        -2.759437         1.033321         1.051098
 C        -2.116916         1.530498        -0.223622
 C        -0.951815         0.478933         0.266912
 O         0.453704         0.452351         0.127907
 C        -1.773734        -0.802809         0.015060
 H        -3.798303        -2.136055         0.267970
 H        -2.607360        -0.055989         3.213136
 H        -1.067095        -0.956968         2.859768
 H        -0.979650         1.867458         2.269471
 H        -3.611364         1.622033         1.533574
 H        -2.723901         1.451038        -1.156853
 H        -1.723473         2.556656        -0.100939
 H         0.614178         0.207625         1.056427
 H        -2.283226        -0.823801        -0.931881
 H        -1.084894        -1.642418         0.064774
