19
Iteration:   676
 O        -3.862620        -1.490489         1.145824
 C        -2.704173        -0.637312         1.136793
 C        -1.848681        -0.507484         2.424812
 C        -1.414200         0.737733         1.825235
 C        -2.811888         0.966496         1.094347
 C        -2.155728         1.494244        -0.139174
 C        -0.904588         0.429058         0.265048
 O         0.462302         0.771052         0.053485
 C        -1.565831        -0.977859         0.097962
 H        -4.649850        -0.980799         0.989937
 H        -2.647054        -0.400440         3.190237
 H        -1.107039        -1.281983         2.559195
 H        -0.633841         1.485258         2.208348
 H        -3.655048         1.347092         1.585576
 H        -2.617899         1.267635        -1.166137
 H        -1.946178         2.547275        -0.056866
 H         0.637000         0.814677        -0.914393
 H        -1.872121        -1.078986        -0.955762
 H        -0.987911        -1.751474         0.592677
