19
Iteration:  3628
 O        -4.055823        -1.275359         0.976507
 C        -2.695674        -0.646507         1.162166
 C        -1.925296        -0.558789         2.561571
 C        -1.418387         0.732498         1.867036
 C        -2.755017         0.915133         1.076856
 C        -1.989435         1.417104        -0.211282
 C        -0.943549         0.441429         0.358060
 O         0.454437         0.760818        -0.038759
 C        -1.468778        -0.937911         0.179711
 H        -3.990498        -2.201745         0.772505
 H        -2.579361        -0.386864         3.469212
 H        -1.233192        -1.425926         2.728744
 H        -0.921950         1.490825         2.404013
 H        -3.580894         1.479915         1.523509
 H        -2.528212         1.011611        -1.057967
 H        -1.659599         2.480450        -0.084403
 H         0.428598         1.047678        -0.973465
 H        -1.920853        -1.388329        -0.699075
 H        -0.792256        -1.700660         0.656706
