19
Iteration:  4776charge 0 multiplicity 1
 O        -3.921388        -1.400219         1.199225
 C        -2.747660        -0.646897         1.143311
 C        -1.946957        -0.573591         2.468807
 C        -1.425288         0.763376         1.809786
 C        -2.775109         0.931380         1.038829
 C        -1.944279         1.422602        -0.185651
 C        -0.921211         0.536617         0.362524
 O         0.415138         0.689073         0.111582
 C        -1.537023        -0.897608         0.005272
 H        -4.411112        -1.525481         0.367034
 H        -2.702339        -0.411851         3.194662
 H        -1.194237        -1.318338         2.732273
 H        -0.918761         1.609846         2.390699
 H        -3.548009         1.577870         1.331819
 H        -2.146509         1.207593        -1.263796
 H        -1.762888         2.472244        -0.060984
 H         0.703309         0.524551        -0.789135
 H        -2.084868        -0.762853        -0.993507
 H        -1.014744        -1.906393         0.094420
