19
Iteration:  2910charge 0 multiplicity 1
 O        -3.844553        -1.617729         1.219810
 C        -2.657102        -0.609238         1.056366
 C        -1.826414        -0.492963         2.358812
 C        -1.491509         0.893641         1.797083
 C        -2.860759         0.980117         1.002453
 C        -2.071420         1.575806        -0.081405
 C        -0.940451         0.598672         0.341251
 O         0.412021         0.409836         0.018303
 C        -1.566752        -0.824193         0.068306
 H        -4.551459        -1.326913         0.591068
 H        -2.463883        -0.471289         3.261939
 H        -1.041440        -1.241321         2.377892
 H        -1.051315         1.748760         2.256493
 H        -3.809024         1.303582         1.322566
 H        -2.531727         1.733733        -1.082981
 H        -1.781414         2.573529         0.333477
 H         0.902033         0.547414         0.854838
 H        -1.711422        -0.909298        -1.040862
 H        -0.817926        -1.588338         0.474705
