19
Iteration:  2589
 O        -3.809480        -1.533089         1.189160
 C        -2.732601        -0.614863         1.096050
 C        -1.799186        -0.520743         2.393322
 C        -1.355183         0.802571         1.823728
 C        -2.804643         1.033481         1.139328
 C        -2.163524         1.464145        -0.196992
 C        -0.916053         0.482104         0.378384
 O         0.447196         0.561117         0.102692
 C        -1.669362        -0.850625        -0.099414
 H        -4.475352        -1.288086         0.480124
 H        -2.550738        -0.458992         3.171477
 H        -1.044032        -1.273642         2.680503
 H        -0.722893         1.596853         2.382879
 H        -3.724013         1.591785         1.603158
 H        -2.585304         1.172861        -1.183563
 H        -1.986716         2.575090        -0.242346
 H         0.791889         1.103632         0.821229
 H        -2.116764        -0.670243        -1.084916
 H        -1.247156        -1.842341        -0.031616
