19
Iteration:  4388charge 0 multiplicity 1
 O        -3.944588        -1.459814         1.058333
 C        -2.778226        -0.528640         1.097060
 C        -2.000784        -0.494303         2.461908
 C        -1.378059         0.735913         1.858470
 C        -2.755533         0.999313         1.159902
 C        -2.023320         1.445149        -0.156479
 C        -0.889090         0.495920         0.342958
 O         0.445521         0.705232        -0.066163
 C        -1.507449        -0.978181         0.117750
 H        -4.080022        -1.799662         0.165677
 H        -2.798503        -0.245521         3.237010
 H        -1.463552        -1.381740         2.783573
 H        -0.973215         1.664919         2.370234
 H        -3.583396         1.451039         1.744391
 H        -2.505200         1.190330        -1.057574
 H        -1.721548         2.503721        -0.030286
 H         1.016368         0.136354         0.542579
 H        -1.725896        -1.171221        -0.985059
 H        -0.942925        -1.851381         0.446533
