19
Iteration:   551charge 0 multiplicity 1
 O        -3.713896        -1.580096         1.248547
 C        -2.745524        -0.575484         1.062270
 C        -1.750785        -0.615020         2.346691
 C        -1.449276         0.742603         1.813444
 C        -2.908524         1.024082         1.044677
 C        -2.048171         1.670834        -0.168864
 C        -0.982269         0.493255         0.335868
 O         0.410494         0.573606         0.197759
 C        -1.775284        -0.763168        -0.116219
 H        -3.536396        -2.209745         1.901355
 H        -2.217628        -0.542063         3.299440
 H        -0.922244        -1.338262         2.380733
 H        -0.937075         1.486867         2.385509
 H        -3.662153         1.686896         1.581932
 H        -2.369564         1.505411        -1.155981
 H        -1.795047         2.764845        -0.042728
 H         0.823414        -0.006600        -0.448176
 H        -2.133530        -0.766415        -1.068098
 H        -1.232553        -1.683311        -0.108458
