19
Iteration:  1630charge 0 multiplicity 1
 O        -3.952432        -1.171356         1.127920
 C        -2.640292        -0.721194         1.163269
 C        -1.816550        -0.511229         2.502491
 C        -1.459600         0.746453         1.742657
 C        -2.766385         0.802599         0.997139
 C        -2.133499         1.328720        -0.224896
 C        -0.914141         0.450882         0.331904
 O         0.415565         0.813881         0.085011
 C        -1.547157        -0.965763         0.153339
 H        -3.927818        -2.130179         1.178911
 H        -2.584290        -0.229343         3.240199
 H        -1.108482        -1.321169         2.783035
 H        -0.980284         1.725710         2.179442
 H        -3.769916         1.136778         1.482408
 H        -2.485600         1.019399        -1.196866
 H        -1.886709         2.423163        -0.097411
 H         0.558360         0.958810        -0.900836
 H        -1.802033        -1.191063        -0.909203
 H        -0.844575        -1.707954         0.523067
