19
Iteration:  4752charge 0 multiplicity 1
 O        -3.865372        -1.386812         1.037539
 C        -2.776856        -0.642442         1.172676
 C        -2.012575        -0.550095         2.428535
 C        -1.377985         0.726024         1.796486
 C        -2.694653         1.041730         1.140608
 C        -2.074022         1.469094        -0.151643
 C        -0.937360         0.410992         0.358094
 O         0.459533         0.779283         0.027520
 C        -1.563306        -1.003518         0.191338
 H        -4.108935        -1.527468         0.074329
 H        -2.738922        -0.358777         3.225503
 H        -1.359530        -1.358218         2.658680
 H        -0.723217         1.459365         2.263596
 H        -3.573092         1.544109         1.489653
 H        -2.722045         1.365202        -1.059331
 H        -1.479258         2.437835        -0.267675
 H         0.643526         0.497547        -0.932873
 H        -1.882656        -1.388763        -0.804923
 H        -1.070809        -1.846319         0.763390
