19
Iteration:  1115
 O        -3.858539        -1.439999         1.041101
 C        -2.669983        -0.716330         1.134841
 C        -2.040631        -0.597399         2.551088
 C        -1.409836         0.714995         1.989791
 C        -2.705311         0.961775         1.221992
 C        -2.038706         1.517734         0.013422
 C        -0.897415         0.486283         0.345934
 O         0.305923         0.704879        -0.356414
 C        -1.483255        -0.908990         0.052445
 H        -4.323374        -1.213577         0.241456
 H        -2.885922        -0.408185         3.236864
 H        -1.449439        -1.437867         2.990811
 H        -0.933258         1.450820         2.580545
 H        -3.605531         1.334754         1.788126
 H        -2.410031         1.631021        -1.039039
 H        -1.517940         2.502248         0.259016
 H         0.585959         1.634494        -0.288512
 H        -1.724530        -1.069934        -1.024785
 H        -0.704393        -1.648850         0.253952
