19
Iteration:  2259
 O        -3.708011        -1.551091         1.184516
 C        -2.694088        -0.630563         1.184489
 C        -1.868712        -0.426460         2.461974
 C        -1.530041         0.874676         1.734012
 C        -2.918140         1.006879         1.031186
 C        -2.116380         1.554851        -0.245918
 C        -0.964229         0.539272         0.349647
 O         0.489351         0.411998         0.061562
 C        -1.642931        -0.829346         0.085378
 H        -3.851629        -1.754981         0.274457
 H        -2.353809        -0.451457         3.459972
 H        -1.116712        -1.232113         2.441450
 H        -1.067663         1.684522         2.179734
 H        -3.752927         1.389578         1.513734
 H        -2.314636         1.373990        -1.341222
 H        -1.831097         2.659989        -0.124389
 H         1.096544         0.554371         0.803383
 H        -2.181740        -0.788363        -0.882250
 H        -1.064254        -1.770125         0.207847
