19
Iteration:  4719
 O        -3.911898        -1.357871         0.899670
 C        -2.692530        -0.704758         1.223747
 C        -1.944412        -0.507987         2.560694
 C        -1.393896         0.770665         1.884307
 C        -2.732452         0.915878         1.121345
 C        -2.066167         1.441525        -0.163351
 C        -0.919344         0.580829         0.429291
 O         0.421729         0.586191        -0.068900
 C        -1.563367        -0.886541         0.207430
 H        -4.050874        -1.397820        -0.066345
 H        -2.755102        -0.314330         3.286842
 H        -1.176599        -1.125481         2.963767
 H        -0.869766         1.578174         2.365745
 H        -3.661723         1.411188         1.418840
 H        -2.511580         1.041707        -1.099174
 H        -1.737742         2.563208        -0.114443
 H         0.318635         0.574113        -1.054929
 H        -1.826225        -0.983882        -0.929799
 H        -0.889997        -1.797416         0.457828
