19
Iteration:  4843
 O        -3.809474        -1.499720         1.069507
 C        -2.717693        -0.607094         1.161629
 C        -1.970444        -0.510682         2.515325
 C        -1.398427         0.779836         1.901189
 C        -2.770039         0.977126         1.098141
 C        -1.985893         1.489690        -0.229522
 C        -0.901094         0.458320         0.318181
 O         0.447642         0.667475         0.086110
 C        -1.707752        -0.894494         0.076633
 H        -4.245309        -1.415205         0.206953
 H        -2.602187        -0.284366         3.349132
 H        -1.265615        -1.309251         2.828977
 H        -0.859932         1.674135         2.335735
 H        -3.572206         1.650285         1.323811
 H        -2.380225         1.254700        -1.251231
 H        -1.784087         2.558096        -0.163944
 H         0.528635         0.245034        -0.804237
 H        -2.125700        -0.959723        -0.983167
 H        -1.233064        -1.892970         0.257153
