19
Iteration:  2602
 O        -3.785210        -1.518851         1.154243
 C        -2.699958        -0.633563         1.133989
 C        -1.956395        -0.530211         2.472135
 C        -1.378945         0.700326         1.831682
 C        -2.744266         0.981278         1.070683
 C        -2.027478         1.456582        -0.114974
 C        -0.978669         0.475497         0.263908
 O         0.436972         0.672230        -0.011649
 C        -1.713289        -0.827312         0.029520
 H        -4.406186        -1.267208         0.472406
 H        -2.513112        -0.127240         3.335803
 H        -1.302017        -1.396205         2.725179
 H        -0.674503         1.382930         2.378424
 H        -3.652238         1.516723         1.420258
 H        -2.677683         1.333554        -1.061048
 H        -1.664149         2.529945         0.000835
 H         0.849543         1.280237         0.650074
 H        -2.083401        -0.981857        -1.020850
 H        -1.063825        -1.686591         0.247455
