19
Iteration:  1057charge 0 multiplicity 1
 O        -3.782829        -1.502218         1.299848
 C        -2.670047        -0.712344         1.042928
 C        -1.635824        -0.566206         2.171381
 C        -1.418422         0.812994         1.780705
 C        -2.780050         1.028585         1.139401
 C        -2.126408         1.564940        -0.128053
 C        -1.011400         0.535976         0.324310
 O         0.406864         0.478225         0.265417
 C        -1.842923        -0.805658        -0.110021
 H        -4.412151        -1.494534         0.522038
 H        -2.215902        -0.618171         3.118568
 H        -0.732375        -1.179368         2.204126
 H        -0.831401         1.743071         2.302485
 H        -3.740731         1.268435         1.702511
 H        -2.703262         1.277859        -1.142076
 H        -1.774782         2.596172        -0.158222
 H         0.781729         1.318516         0.653486
 H        -2.174737        -0.705709        -1.134633
 H        -1.109785        -1.614985        -0.072602
