19
Iteration:  1638
 O        -3.974808        -1.119104         1.128113
 C        -2.640892        -0.741747         1.139013
 C        -1.882160        -0.519485         2.501260
 C        -1.434869         0.740457         1.797522
 C        -2.773690         0.776221         1.058465
 C        -2.064745         1.287465        -0.237509
 C        -0.904217         0.486097         0.368009
 O         0.391098         0.864766         0.002809
 C        -1.486154        -1.054225         0.141661
 H        -4.121002        -2.046588         1.064514
 H        -2.537282        -0.230674         3.315263
 H        -1.179001        -1.243396         2.935695
 H        -0.934311         1.608117         2.325852
 H        -3.737927         1.262141         1.392068
 H        -2.473185         1.054117        -1.205609
 H        -2.140526         2.382929        -0.197676
 H         0.457710         1.218472        -0.927065
 H        -1.647321        -1.302990        -0.888573
 H        -0.858069        -1.799930         0.548425
