19
Iteration:  2777charge 0 multiplicity 1
 O        -3.825218        -1.471343         0.912672
 C        -2.769247        -0.613812         1.181309
 C        -1.887857        -0.606218         2.523417
 C        -1.353039         0.688107         1.751762
 C        -2.707314         1.066999         1.199991
 C        -2.123362         1.595880        -0.154405
 C        -1.019640         0.522721         0.248536
 O         0.381580         0.602158        -0.018986
 C        -1.626220        -0.893711         0.162828
 H        -3.548515        -2.414360         1.132718
 H        -2.516083        -0.386086         3.398683
 H        -1.282519        -1.478063         2.767021
 H        -0.760177         1.484906         2.230358
 H        -3.309857         1.612329         1.889063
 H        -2.721429         1.194582        -0.989513
 H        -1.681098         2.597334        -0.277696
 H         0.743416         1.344665         0.556464
 H        -1.944460        -1.146607        -0.869347
 H        -0.799370        -1.503168         0.562836
