19
Iteration:   927charge 0 multiplicity 1
 O        -3.847597        -1.434509         1.169614
 C        -2.700624        -0.658321         1.176370
 C        -1.833732        -0.592531         2.428614
 C        -1.379117         0.766589         1.808670
 C        -2.718221         0.939628         1.081226
 C        -2.084660         1.488059        -0.214380
 C        -0.946674         0.483634         0.355224
 O         0.388106         0.735320         0.087930
 C        -1.703933        -0.887746         0.077771
 H        -4.202410        -1.600900         0.237921
 H        -2.243501        -0.451892         3.438332
 H        -1.100679        -1.365979         2.230917
 H        -0.890349         1.638574         2.347878
 H        -3.703838         1.372840         1.355866
 H        -2.549239         1.311237        -1.184727
 H        -1.717146         2.466627        -0.065796
 H         0.691222         0.484641        -0.791751
 H        -2.220643        -0.902572        -0.885390
 H        -1.058420        -1.716102         0.324240
