19
Iteration:   518
 O        -3.951868        -1.330305         1.137902
 C        -2.689736        -0.691612         1.122683
 C        -1.720660        -0.601527         2.360663
 C        -1.376504         0.761607         1.842385
 C        -2.847859         0.854906         1.087371
 C        -2.197907         1.518925        -0.100946
 C        -0.918028         0.541038         0.296933
 O         0.466678         0.721783         0.087704
 C        -1.620140        -0.908401        -0.028533
 H        -3.901419        -2.206937         1.544716
 H        -2.295192        -0.518255         3.263670
 H        -0.924659        -1.337002         2.526484
 H        -0.938798         1.580010         2.384463
 H        -3.728061         1.303999         1.684727
 H        -2.728565         1.414274        -1.018084
 H        -1.996631         2.608068         0.133941
 H         0.943912         0.256816        -0.644879
 H        -2.038337        -0.837673        -0.967139
 H        -0.933178        -1.698918         0.190641
