19
Iteration:  4166charge 0 multiplicity 1
 O        -3.861625        -1.399022         1.230816
 C        -2.672395        -0.798378         1.037137
 C        -1.923249        -0.612901         2.385770
 C        -1.510708         0.773040         1.860088
 C        -2.872903         0.917803         1.055708
 C        -1.968501         1.568470        -0.065803
 C        -0.881790         0.537384         0.376303
 O         0.484740         0.624279         0.100671
 C        -1.606492        -0.770554        -0.089233
 H        -4.447586        -1.014912         0.584390
 H        -2.697304        -0.683991         3.131186
 H        -1.031007        -1.282083         2.465665
 H        -0.977627         1.511290         2.440056
 H        -3.821866         1.312514         1.426599
 H        -2.289767         1.688037        -1.152355
 H        -1.677211         2.606908         0.085671
 H         0.798826        -0.118220        -0.394389
 H        -2.263733        -0.784244        -1.047268
 H        -1.075841        -1.699820         0.123611
