19
Iteration:  3987
 O        -3.748015        -1.526253         0.942810
 C        -2.679583        -0.579127         1.086616
 C        -1.980834        -0.593038         2.468340
 C        -1.482629         0.811507         1.864413
 C        -2.772890         1.002513         1.100787
 C        -1.936811         1.567792        -0.050997
 C        -0.969013         0.532217         0.358784
 O         0.302246         0.577809        -0.044025
 C        -1.580822        -0.863987         0.143302
 H        -4.453469        -1.127739         1.463280
 H        -2.526935        -0.619472         3.442499
 H        -1.116852        -1.255591         2.485813
 H        -0.864737         1.615456         2.351730
 H        -3.632181         1.389455         1.681346
 H        -2.250801         1.491133        -1.087583
 H        -1.621551         2.625288         0.188941
 H         0.497285        -0.311883        -0.349946
 H        -1.759491        -0.797364        -0.921838
 H        -1.059637        -1.850657         0.376567
