19
Iteration:  1361charge 0 multiplicity 1
 O        -3.846668        -1.475420         1.129788
 C        -2.756061        -0.615715         1.131127
 C        -1.751144        -0.568270         2.401309
 C        -1.429121         0.788038         1.782467
 C        -2.799442         0.990025         1.058985
 C        -2.143403         1.439863        -0.230529
 C        -0.958553         0.514409         0.326059
 O         0.439151         0.675998         0.175914
 C        -1.610059        -0.921664         0.022031
 H        -4.512027        -1.250736         1.825367
 H        -2.230760        -0.490260         3.452529
 H        -0.915467        -1.326463         2.494256
 H        -0.822245         1.643190         2.281323
 H        -3.604387         1.463548         1.671296
 H        -2.536489         1.145975        -1.269775
 H        -1.909135         2.536509        -0.215806
 H         0.700346         0.885317        -0.733300
 H        -2.028311        -1.045012        -1.028974
 H        -0.998441        -1.775718         0.412071
