19
Iteration:  1398
 O        -3.619444        -1.698442         1.215317
 C        -2.693172        -0.657888         1.116376
 C        -1.844416        -0.402831         2.482306
 C        -1.513830         0.879537         1.752035
 C        -2.890421         0.987274         0.973261
 C        -2.013424         1.723496        -0.202230
 C        -0.970471         0.522208         0.324840
 O         0.411645         0.408968         0.191840
 C        -1.798469        -0.765080        -0.107096
 H        -3.581261        -1.983263         2.118801
 H        -2.568794        -0.316413         3.247294
 H        -1.050408        -1.101041         2.672353
 H        -1.139825         1.717112         2.246985
 H        -3.562828         1.612513         1.521975
 H        -2.172524         1.696462        -1.237871
 H        -1.723301         2.696014         0.088116
 H         0.552956        -0.375321        -0.400683
 H        -2.300803        -0.617610        -1.046174
 H        -1.186483        -1.628287        -0.121525
