19
Iteration:  2162charge 0 multiplicity 1
 O        -3.882357        -1.307346         0.922987
 C        -2.637298        -0.630466         1.242823
 C        -1.988893        -0.543419         2.577738
 C        -1.362516         0.811750         1.875093
 C        -2.736186         0.859141         1.100914
 C        -2.118159         1.286320        -0.237211
 C        -0.942365         0.494112         0.310233
 O         0.321551         0.832725        -0.173850
 C        -1.420174        -1.018898         0.270179
 H        -4.570697        -0.680557         0.730539
 H        -2.662820        -0.150366         3.367588
 H        -1.379103        -1.227205         3.177023
 H        -0.946335         1.659290         2.301822
 H        -3.593669         1.242029         1.551874
 H        -2.583586         0.852177        -1.112123
 H        -2.037720         2.388824        -0.260402
 H         0.974515         0.176003         0.103748
 H        -1.782215        -1.535102        -0.670567
 H        -0.728079        -1.707555         0.808596
