19
Iteration:  1818charge 0 multiplicity 1
 O        -3.736939        -1.425762         0.701805
 C        -2.667229        -0.598265         1.186768
 C        -1.937327        -0.539139         2.523946
 C        -1.481970         0.874225         2.070335
 C        -2.745535         0.951439         1.242946
 C        -2.115211         1.391631        -0.018681
 C        -0.869639         0.518681         0.384176
 O         0.228959         0.504495        -0.365970
 C        -1.470262        -0.897381         0.289189
 H        -4.602169        -0.966476         0.999926
 H        -2.612637        -0.291471         3.378709
 H        -1.168958        -1.229042         2.859830
 H        -0.897883         1.610024         2.528695
 H        -3.429465         1.577114         1.722311
 H        -2.700498         1.199005        -0.929097
 H        -1.994220         2.443885        -0.031411
 H         0.594586         1.415390        -0.393826
 H        -1.583941        -1.269390        -0.723809
 H        -0.780859        -1.656407         0.725557
