19
Iteration:   113charge 0 multiplicity 1
 O        -3.990575        -1.157170         0.980174
 C        -2.696896        -0.651002         1.173343
 C        -1.823666        -0.574409         2.546823
 C        -1.289077         0.678273         1.828547
 C        -2.741840         0.899143         1.121982
 C        -2.181424         1.260850        -0.246350
 C        -0.915865         0.435118         0.318116
 O         0.352076         0.941798         0.025651
 C        -1.503601        -1.002906         0.142891
 H        -4.005416        -2.111955         1.391642
 H        -2.521749        -0.311261         3.390659
 H        -1.148569        -1.370360         2.871616
 H        -0.819259         1.394169         2.514950
 H        -3.717622         1.241705         1.697279
 H        -2.611215         0.776589        -1.076410
 H        -1.876933         2.308212        -0.644451
 H         0.518429         0.595755        -0.898154
 H        -1.801756        -1.403210        -0.841680
 H        -0.726530        -1.673507         0.549765
