19
Iteration:  4917charge 0 multiplicity 1
 O        -3.970133        -1.370662         0.845558
 C        -2.785409        -0.608608         1.178955
 C        -1.845573        -0.506820         2.593472
 C        -1.382459         0.766283         1.886586
 C        -2.764983         0.930343         1.119276
 C        -2.093661         1.380361        -0.109775
 C        -0.855133         0.476014         0.372216
 O         0.458802         0.717771        -0.090013
 C        -1.665249        -0.889787         0.062676
 H        -3.928843        -2.192274         1.349392
 H        -2.495514        -0.203059         3.404431
 H        -1.095351        -1.275456         2.903738
 H        -0.750930         1.495999         2.507331
 H        -3.591082         1.438665         1.505171
 H        -2.341189         1.008226        -1.161440
 H        -1.846634         2.468187        -0.103669
 H         0.941889         0.263094         0.593050
 H        -1.871358        -0.975538        -1.001889
 H        -0.889192        -1.627264         0.333535
