19
Iteration:   714
 O        -3.584956        -1.787364         1.164764
 C        -2.697487        -0.627259         1.146702
 C        -1.944822        -0.444344         2.505564
 C        -1.480697         0.863610         1.839600
 C        -2.882644         1.072003         1.023137
 C        -1.967145         1.655856        -0.138557
 C        -0.948487         0.548123         0.386512
 O         0.448379         0.431781         0.004276
 C        -1.782781        -0.719752        -0.019453
 H        -4.516283        -1.389804         1.012339
 H        -2.590098        -0.478158         3.372612
 H        -0.990946        -1.053567         2.682513
 H        -0.968484         1.547459         2.419373
 H        -3.858708         1.554706         1.447873
 H        -2.244757         1.601738        -1.166582
 H        -1.711805         2.746132         0.134403
 H         0.465779        -0.099753        -0.838704
 H        -2.397622        -0.701970        -0.925686
 H        -1.290895        -1.710351        -0.083405
