19
Iteration:   931
 O        -3.894163        -1.407019         1.124352
 C        -2.683846        -0.624731         1.179112
 C        -1.789452        -0.574421         2.426956
 C        -1.380036         0.784236         1.822576
 C        -2.738324         0.917261         1.096241
 C        -2.107833         1.458035        -0.185270
 C        -0.951935         0.482593         0.351169
 O         0.400600         0.733099         0.072653
 C        -1.660263        -0.922969         0.098323
 H        -4.173825        -1.513107         0.233672
 H        -2.276380        -0.524379         3.422505
 H        -0.987932        -1.365561         2.345612
 H        -0.977492         1.574741         2.345879
 H        -3.721151         1.339948         1.439941
 H        -2.544332         1.247285        -1.162711
 H        -1.763979         2.551728        -0.111490
 H         0.586905         0.580070        -0.881999
 H        -2.175556        -0.982053        -0.910713
 H        -1.079039        -1.843234         0.346731
