19
Iteration:  1126
 O        -3.816514        -1.451757         0.919549
 C        -2.692945        -0.624508         1.160855
 C        -2.069976        -0.640292         2.652099
 C        -1.370186         0.646072         2.028860
 C        -2.679052         0.943662         1.199471
 C        -1.982079         1.527306         0.005657
 C        -0.916997         0.477114         0.318825
 O         0.245007         0.700652        -0.469786
 C        -1.481950        -0.846810         0.202340
 H        -4.007375        -1.471689        -0.005378
 H        -2.849767        -0.307823         3.365479
 H        -1.454668        -1.499523         3.027712
 H        -0.892793         1.378538         2.614632
 H        -3.538915         1.567912         1.582400
 H        -2.704851         1.572915        -0.869323
 H        -1.581267         2.570045         0.263279
 H         0.460798         1.635987        -0.188590
 H        -1.859060        -1.097990        -0.813739
 H        -0.859763        -1.611373         0.669594
