19
Iteration:  1078charge 0 multiplicity 1
 O        -3.860064        -1.498930         1.236174
 C        -2.734454        -0.613210         1.172730
 C        -1.675507        -0.720792         2.331834
 C        -1.395557         0.702361         1.784473
 C        -2.817512         0.995662         1.120561
 C        -2.134673         1.512462        -0.232215
 C        -1.010142         0.558955         0.282991
 O         0.444228         0.603420         0.205483
 C        -1.689901        -0.774420        -0.061993
 H        -4.547477        -1.060571         0.653805
 H        -1.866551        -0.821487         3.419609
 H        -0.904109        -1.445721         2.108560
 H        -0.839570         1.626983         2.306513
 H        -3.562759         1.556991         1.712514
 H        -2.436374         1.417226        -1.327728
 H        -1.949391         2.582626        -0.032631
 H         0.743238         1.494331         0.061983
 H        -2.070131        -0.698414        -1.077399
 H        -1.173027        -1.749456         0.014670
