19
Iteration:  3128charge 0 multiplicity 1
 O        -3.891337        -1.491943         0.985840
 C        -2.711749        -0.621339         1.115134
 C        -1.971022        -0.551667         2.492943
 C        -1.405503         0.729472         1.803834
 C        -2.744717         1.015634         1.145217
 C        -2.089702         1.453205        -0.145638
 C        -0.900143         0.503645         0.344137
 O         0.460515         0.680551        -0.061615
 C        -1.536963        -0.952283         0.151978
 H        -4.554066        -1.274693         1.711792
 H        -2.667687        -0.336461         3.343131
 H        -1.231460        -1.314609         2.765518
 H        -0.895843         1.598398         2.287317
 H        -3.507681         1.594230         1.752850
 H        -2.516947         1.384675        -1.146853
 H        -1.698824         2.448675         0.012549
 H         0.460031         1.560812        -0.537959
 H        -1.937556        -1.291739        -0.806527
 H        -0.985383        -1.796887         0.603520
