19
Iteration:  1984charge 0 multiplicity 1
 O        -3.866969        -1.375423         0.935140
 C        -2.696069        -0.647948         1.129092
 C        -2.193764        -0.469510         2.650007
 C        -1.529147         0.858379         1.995457
 C        -2.804612         0.946551         1.097591
 C        -1.955079         1.364537        -0.066062
 C        -0.799729         0.460680         0.302740
 O         0.389774         0.796690        -0.442949
 C        -1.436668        -1.024973         0.367636
 H        -3.566295        -2.187855         1.288244
 H        -2.898919        -0.125904         3.460980
 H        -1.375530        -1.166717         3.005630
 H        -1.080900         1.572791         2.708794
 H        -3.710537         1.489468         1.535710
 H        -2.326020         1.233354        -1.130201
 H        -1.571406         2.378519        -0.091544
 H         0.846965         0.010350        -0.848010
 H        -1.684117        -1.405028        -0.678565
 H        -0.773988        -1.859714         0.813593
