19
Iteration:  1714charge 0 multiplicity 1
 O        -3.812949        -1.472227         1.036005
 C        -2.630788        -0.668492         1.131040
 C        -1.774177        -0.376067         2.533490
 C        -1.509633         0.850831         1.843236
 C        -2.899026         0.920852         1.099609
 C        -2.129704         1.570010        -0.105192
 C        -0.960347         0.597614         0.353162
 O         0.390819         0.339992        -0.051840
 C        -1.611263        -0.857776         0.019488
 H        -3.526633        -2.416346         0.849713
 H        -2.497689        -0.343327         3.343193
 H        -0.924736        -1.036306         2.817988
 H        -1.185267         1.866740         2.268392
 H        -3.767806         1.438687         1.665263
 H        -2.372959         1.505059        -1.188830
 H        -1.796012         2.605589         0.180178
 H         1.041881         0.993623         0.199430
 H        -2.000506        -0.908937        -0.998980
 H        -0.795026        -1.524585         0.288056
