19
Iteration:  2680charge 0 multiplicity 1
 O        -3.901228        -1.370398         0.802303
 C        -2.692901        -0.660290         1.194945
 C        -1.864101        -0.512660         2.560439
 C        -1.303999         0.714381         1.885092
 C        -2.739336         0.985553         1.226823
 C        -2.128216         1.439439        -0.079005
 C        -0.960170         0.439987         0.307255
 O         0.363159         0.617135        -0.082764
 C        -1.587653        -0.838044         0.175537
 H        -3.584907        -2.315393         0.682813
 H        -2.517152        -0.172234         3.401801
 H        -1.158844        -1.318460         2.856841
 H        -0.694544         1.463091         2.324403
 H        -3.557103         1.456676         1.694445
 H        -2.684458         1.205605        -1.046135
 H        -2.029960         2.542482        -0.241141
 H         0.488046         1.572888        -0.333432
 H        -2.146997        -0.947981        -0.778560
 H        -0.941209        -1.738069         0.342082
