19
Iteration:  3428
 O        -3.757418        -1.623881         1.024358
 C        -2.764898        -0.647026         1.148460
 C        -2.062287        -0.409890         2.515119
 C        -1.340917         0.785256         1.853844
 C        -2.694969         1.050048         1.114591
 C        -1.985046         1.560653        -0.130894
 C        -0.957668         0.461776         0.368150
 O         0.321554         0.598808        -0.113921
 C        -1.653731        -0.813221         0.120719
 H        -3.897689        -1.882433         0.057183
 H        -2.839253        -0.149719         3.296880
 H        -1.403605        -1.064585         3.162813
 H        -0.710359         1.527043         2.425645
 H        -3.621508         1.417255         1.482542
 H        -2.472653         1.500036        -1.092491
 H        -1.506495         2.572442         0.004096
 H         0.981001        -0.090646         0.235841
 H        -1.839244        -1.175013        -0.918579
 H        -0.957360        -1.586820         0.568562
