19
Iteration:  1416
 O        -3.623402        -1.718272         1.159062
 C        -2.681147        -0.677512         1.153510
 C        -1.978530        -0.397425         2.463834
 C        -1.538297         0.914802         1.798755
 C        -2.824159         1.043991         1.023988
 C        -1.959529         1.589987        -0.112177
 C        -0.983871         0.578434         0.297860
 O         0.414651         0.417805        -0.015478
 C        -1.690219        -0.703083         0.007034
 H        -3.875274        -2.014271         2.005319
 H        -2.714220        -0.017069         3.265878
 H        -1.233326        -1.086247         2.974294
 H        -0.928918         1.695342         2.306154
 H        -3.873665         1.208434         1.179292
 H        -2.443358         1.702749        -1.155776
 H        -1.648423         2.571026         0.317139
 H         0.618822        -0.548436        -0.092241
 H        -2.359287        -0.745797        -0.892737
 H        -1.076168        -1.635550        -0.129411
