19
Iteration:   791charge 0 multiplicity 1
 O        -3.983078        -1.171427         1.001136
 C        -2.735381        -0.687118         1.123172
 C        -1.903793        -0.589603         2.501897
 C        -1.377067         0.748875         1.898617
 C        -2.737747         0.875027         1.132665
 C        -2.043699         1.284684        -0.152570
 C        -0.889355         0.402810         0.413755
 O         0.331066         1.024126        -0.199035
 C        -1.484442        -1.132197         0.135315
 H        -4.170167        -1.809249         1.723900
 H        -2.527564        -0.243923         3.282463
 H        -1.389519        -1.538365         2.644235
 H        -0.846327         1.492760         2.487038
 H        -3.720084         1.310084         1.487636
 H        -2.461527         0.884080        -1.066831
 H        -1.718925         2.369920        -0.260401
 H         1.127191         0.693138         0.299133
 H        -1.712397        -1.143822        -0.892643
 H        -0.849059        -1.949901         0.488568
