19
Iteration:  4195charge 0 multiplicity 1
 O        -3.879268        -1.461060         1.035117
 C        -2.736560        -0.675695         1.080463
 C        -1.796270        -0.629754         2.333236
 C        -1.405241         0.734886         1.795399
 C        -2.788807         1.008080         1.108205
 C        -2.021400         1.553282        -0.174286
 C        -0.955053         0.503620         0.384645
 O         0.394847         0.664745         0.224215
 C        -1.662863        -0.822118         0.041237
 H        -4.598375        -0.913620         1.474155
 H        -2.301063        -0.711120         3.333808
 H        -0.966984        -1.335686         2.317234
 H        -0.823550         1.475773         2.333641
 H        -3.623312         1.651730         1.551595
 H        -2.418630         1.279674        -1.173509
 H        -1.599822         2.607685        -0.070632
 H         0.822934        -0.054408        -0.335886
 H        -2.009351        -1.023136        -0.994435
 H        -1.090279        -1.783420         0.266146
