19
Iteration:  1488charge 0 multiplicity 1
 O        -4.007203        -1.097074         0.895349
 C        -2.629862        -0.794199         1.186844
 C        -1.785250        -0.425898         2.684430
 C        -1.349961         0.755806         1.863251
 C        -2.716780         0.781102         1.096087
 C        -2.187686         1.084135        -0.239336
 C        -0.949625         0.383052         0.277127
 O         0.260273         0.976121        -0.070506
 C        -1.376384        -1.047688         0.166017
 H        -4.465263        -0.299250         1.064943
 H        -2.588164        -0.072629         3.322792
 H        -1.189074        -1.256723         3.081879
 H        -0.883461         1.747399         2.312821
 H        -3.703233         1.169945         1.634491
 H        -2.706776         0.477461        -0.950462
 H        -2.057256         2.144909        -0.566795
 H         1.134554         0.743752         0.330710
 H        -1.661003        -1.254900        -0.899960
 H        -0.738503        -1.773411         0.721319
