19
Iteration:   599charge 0 multiplicity 1
 O        -3.772651        -1.522749         0.952160
 C        -2.669745        -0.660735         1.172958
 C        -1.918213        -0.553770         2.545243
 C        -1.351736         0.710296         1.847093
 C        -2.747256         0.967409         1.132734
 C        -2.118213         1.518839        -0.098738
 C        -0.976683         0.563392         0.300015
 O         0.357692         0.667927        -0.097249
 C        -1.585400        -0.873829         0.174501
 H        -4.610277        -1.173882         1.364551
 H        -2.570907        -0.131896         3.336374
 H        -1.275819        -1.342227         2.949910
 H        -0.792511         1.525841         2.386064
 H        -3.608776         1.382911         1.550821
 H        -2.724421         1.564555        -1.065002
 H        -1.727806         2.499633         0.125910
 H         0.368877         0.600353        -1.082385
 H        -1.926786        -1.161885        -0.835437
 H        -0.830058        -1.632874         0.374301
