19
Iteration:  3550charge 0 multiplicity 1
 O        -3.783822        -1.520459         1.209914
 C        -2.774252        -0.597025         1.093457
 C        -1.938334        -0.454325         2.418466
 C        -1.482983         0.778929         1.827692
 C        -2.883899         0.932484         1.024140
 C        -1.908379         1.514015        -0.138303
 C        -0.938828         0.499592         0.385867
 O         0.419059         0.529817        -0.065677
 C        -1.561685        -0.868087         0.060893
 H        -4.680607        -1.321009         0.859650
 H        -2.654354        -0.263050         3.270154
 H        -1.133524        -1.218957         2.477083
 H        -1.333903         1.720411         2.399503
 H        -3.880348         1.440836         1.118314
 H        -2.084703         1.702227        -1.189480
 H        -1.716319         2.556232         0.223959
 H         1.092523         0.722749         0.655845
 H        -1.572797        -0.903989        -1.032957
 H        -1.088024        -1.745566         0.515901
