19
Iteration:  2632
 O        -3.978507        -1.451236         1.052586
 C        -2.745763        -0.713135         1.106828
 C        -1.987628        -0.564951         2.517313
 C        -1.423112         0.749370         1.935826
 C        -2.748290         0.951163         1.095741
 C        -1.966359         1.528239        -0.027051
 C        -0.899473         0.545912         0.406924
 O         0.364707         0.660512        -0.340387
 C        -1.452725        -0.939308         0.217668
 H        -4.145177        -1.563155         0.099062
 H        -2.594815        -0.287257         3.363282
 H        -1.309258        -1.385033         2.770644
 H        -0.881877         1.458658         2.641284
 H        -3.720293         1.415216         1.550717
 H        -2.424352         1.581829        -0.987082
 H        -1.631970         2.550954         0.163315
 H         0.690458         1.558096        -0.283854
 H        -1.442730        -1.236342        -0.832035
 H        -0.796861        -1.617739         0.746849
