19
Iteration:  1106
 O        -3.890868        -1.445287         1.126546
 C        -2.637699        -0.727878         1.098319
 C        -1.979713        -0.597445         2.428353
 C        -1.426887         0.717760         1.935658
 C        -2.769373         0.926844         1.229501
 C        -2.004858         1.536143         0.007835
 C        -0.928211         0.536495         0.303926
 O         0.369858         0.686456        -0.226503
 C        -1.504033        -0.911448         0.036602
 H        -4.379870        -1.020789         0.423586
 H        -2.715716        -0.258376         3.179414
 H        -1.266783        -1.400593         2.733650
 H        -0.943851         1.457272         2.441023
 H        -3.670393         1.207353         1.753798
 H        -2.350127         1.325622        -0.986416
 H        -1.807711         2.607873         0.269365
 H         0.592643         1.626977        -0.296699
 H        -1.950891        -0.833889        -0.980897
 H        -0.910273        -1.827097         0.252411
