19
Iteration:  1329
 O        -3.953712        -1.313915         0.890421
 C        -2.679429        -0.679452         1.189432
 C        -1.925348        -0.584411         2.656197
 C        -1.330950         0.676323         1.978460
 C        -2.727390         0.864104         1.126505
 C        -2.090371         1.306514        -0.142016
 C        -0.897277         0.460100         0.322872
 O         0.335692         0.926359        -0.214262
 C        -1.457056        -0.982256         0.188888
 H        -4.623604        -0.667219         1.014782
 H        -2.702387        -0.109238         3.338599
 H        -1.290078        -1.287445         3.251744
 H        -0.662122         1.565639         2.324904
 H        -3.623787         1.229875         1.704469
 H        -2.478652         1.230696        -1.203782
 H        -1.788098         2.343665         0.010764
 H         0.184554         0.731848        -1.184299
 H        -1.736685        -1.244311        -0.881591
 H        -0.845693        -1.803157         0.629240
