19
Iteration:  3599charge 0 multiplicity 1
 O        -3.845365        -1.444600         0.983474
 C        -2.706382        -0.528167         1.162907
 C        -1.953927        -0.462168         2.495793
 C        -1.339643         0.774607         1.841937
 C        -2.761782         0.975521         1.072575
 C        -2.052299         1.386080        -0.157608
 C        -0.940185         0.430855         0.432935
 O         0.425235         0.596232        -0.004895
 C        -1.632663        -0.872216         0.150423
 H        -3.856784        -2.001380         0.201827
 H        -2.672193        -0.183835         3.241834
 H        -1.331183        -1.309262         2.695339
 H        -0.683975         1.491982         2.342317
 H        -3.553741         1.519522         1.568004
 H        -2.601354         1.039408        -1.061297
 H        -1.796205         2.430172        -0.238054
 H         0.432847         1.477609        -0.334993
 H        -2.184134        -1.002189        -0.819829
 H        -1.135686        -1.826103         0.438798
