19
Iteration:    49
 O        -3.557232        -1.872020         1.180728
 C        -2.713155        -0.687859         1.134846
 C        -2.051496        -0.426367         2.390750
 C        -1.535520         0.913562         1.893940
 C        -2.772308         1.177063         1.043586
 C        -1.924787         1.650009        -0.105101
 C        -0.972710         0.534716         0.344233
 O         0.343123         0.443491        -0.125998
 C        -1.708667        -0.707147         0.049093
 H        -4.450391        -1.620618         1.509082
 H        -2.515059        -0.458864         3.385330
 H        -1.358861        -1.282200         2.559346
 H        -1.147884         1.784256         2.449857
 H        -3.613467         1.751779         1.555622
 H        -2.225274         1.745092        -1.151147
 H        -1.298210         2.582034         0.081705
 H         0.844026        -0.255430         0.355472
 H        -2.323593        -0.709961        -0.869503
 H        -1.087285        -1.621763        -0.099999
