19
Iteration:  3390
 O        -3.937451        -1.445188         1.231921
 C        -2.729264        -0.583034         1.062959
 C        -1.801254        -0.559036         2.362687
 C        -1.491593         0.809092         1.861273
 C        -2.780315         0.894681         1.006713
 C        -2.034543         1.427763        -0.174876
 C        -0.917860         0.538213         0.388073
 O         0.500167         0.646329         0.059270
 C        -1.666897        -0.859274         0.043848
 H        -4.277431        -1.537366         0.344038
 H        -2.428803        -0.416996         3.219223
 H        -0.981971        -1.258510         2.353287
 H        -0.872949         1.600144         2.292035
 H        -3.771007         1.314635         1.398279
 H        -2.477665         1.200674        -1.200673
 H        -1.848126         2.504656        -0.164448
 H         0.938055         0.438389         0.923150
 H        -1.902732        -0.829038        -0.996830
 H        -1.072289        -1.736283         0.245468
