19
Iteration:  3440charge 0 multiplicity 1
 O        -3.797433        -1.570739         1.037445
 C        -2.707512        -0.651217         1.112781
 C        -2.109171        -0.403827         2.540822
 C        -1.405531         0.780335         1.908153
 C        -2.808996         1.036253         1.120461
 C        -2.000786         1.533864        -0.077801
 C        -0.845940         0.472460         0.414013
 O         0.404506         0.619237        -0.258433
 C        -1.563394        -0.875904         0.188497
 H        -3.840247        -1.976265         0.157318
 H        -2.980839         0.028396         3.129387
 H        -1.629227        -1.373509         2.855340
 H        -1.002684         1.679345         2.488302
 H        -3.605685         1.606193         1.626548
 H        -2.318995         1.439140        -1.098560
 H        -1.739657         2.605493         0.158159
 H         0.857758        -0.208407        -0.195993
 H        -1.881768        -0.930701        -0.915821
 H        -1.024067        -1.830396         0.518936
