19
Iteration:  4161charge 0 multiplicity 1
 O        -3.911841        -1.431893         1.220484
 C        -2.646228        -0.803716         1.082600
 C        -1.926275        -0.600550         2.376066
 C        -1.501727         0.739257         1.834628
 C        -2.851887         0.936888         1.022646
 C        -1.951403         1.589651        -0.071273
 C        -0.876262         0.536050         0.403999
 O         0.498414         0.639478         0.071962
 C        -1.641682        -0.742027        -0.064538
 H        -4.373724        -1.172638         0.344020
 H        -2.698725        -0.601143         3.196866
 H        -1.148386        -1.327345         2.631939
 H        -0.940716         1.473304         2.462864
 H        -3.735162         1.324173         1.589916
 H        -2.358339         1.543412        -1.079436
 H        -1.802609         2.678550         0.150011
 H         0.794663        -0.179731        -0.448836
 H        -2.157337        -0.785673        -0.985157
 H        -0.966230        -1.621767         0.132836
