19
Iteration:  4929
 O        -4.017983        -1.440893         0.900273
 C        -2.743254        -0.695634         1.108239
 C        -1.944369        -0.518342         2.567267
 C        -1.306341         0.718333         1.832639
 C        -2.696675         0.939310         1.158178
 C        -2.053191         1.460464        -0.169698
 C        -0.964734         0.560613         0.328144
 O         0.492581         0.661217        -0.051344
 C        -1.573019        -0.808802         0.134321
 H        -4.006572        -2.141910         1.612922
 H        -2.528213        -0.270227         3.425508
 H        -1.229539        -1.329500         2.831335
 H        -0.956585         1.719978         2.241426
 H        -3.511986         1.460324         1.628514
 H        -2.716713         1.146838        -1.071753
 H        -1.846668         2.542015        -0.258652
 H         1.028283         0.557955         0.797341
 H        -2.158094        -0.777661        -0.798013
 H        -1.040055        -1.783521         0.158412
