19
Iteration:  3691
 O        -3.834096        -1.588962         0.963404
 C        -2.790789        -0.615495         1.158282
 C        -1.869168        -0.490454         2.389893
 C        -1.371462         0.774947         1.831490
 C        -2.767543         1.075076         1.105440
 C        -1.952268         1.462331        -0.183152
 C        -0.938163         0.503149         0.388656
 O         0.403024         0.649294         0.071636
 C        -1.719014        -0.820127         0.091225
 H        -4.023118        -1.887897         1.883133
 H        -2.512301        -0.272091         3.288258
 H        -1.302813        -1.434449         2.456970
 H        -0.975644         1.713776         2.352061
 H        -3.454172         1.775666         1.607329
 H        -2.346467         1.362880        -1.213986
 H        -1.630332         2.582417        -0.253113
 H         0.607535        -0.337694         0.089043
 H        -2.210882        -0.928618        -0.832113
 H        -1.104041        -1.692287         0.347456
