19
Iteration:  1112
 O        -3.869634        -1.442777         1.074248
 C        -2.654918        -0.728163         1.125586
 C        -2.027257        -0.595957         2.510571
 C        -1.425367         0.710781         1.971930
 C        -2.724555         0.958246         1.231084
 C        -2.028617         1.525865         0.018121
 C        -0.905542         0.503675         0.327495
 O         0.325186         0.701777        -0.315873
 C        -1.483968        -0.922262         0.038996
 H        -4.372285        -1.116895         0.248972
 H        -2.845519        -0.318514         3.190494
 H        -1.397547        -1.404287         2.874201
 H        -0.875493         1.558213         2.592628
 H        -3.644067         1.268001         1.826067
 H        -2.355265         1.509533        -1.083231
 H        -1.610174         2.509769         0.287214
 H         0.608489         1.616902        -0.311876
 H        -1.777387        -0.969972        -1.017690
 H        -0.768251        -1.714378         0.243545
