19
Iteration:  1594charge 0 multiplicity 1
 O        -3.752242        -1.689844         1.153805
 C        -2.756555        -0.608687         1.119113
 C        -1.828195        -0.415575         2.384115
 C        -1.457143         0.889230         1.748253
 C        -2.800623         1.099334         1.002376
 C        -2.070463         1.531167        -0.208879
 C        -0.991339         0.539303         0.354399
 O         0.444868         0.499642         0.160349
 C        -1.720257        -0.766441         0.088240
 H        -3.358203        -2.395345         1.640546
 H        -2.450091        -0.378891         3.274984
 H        -1.019090        -1.105085         2.665242
 H        -0.993571         1.758081         2.259454
 H        -3.656192         1.559935         1.520951
 H        -2.464322         1.259985        -1.202251
 H        -1.707526         2.551563        -0.394427
 H         0.498982        -0.355279        -0.359745
 H        -2.085806        -0.934039        -0.904049
 H        -1.104041        -1.617471         0.299765
