19
Iteration:   644charge 0 multiplicity 1
 O        -4.041068        -1.228730         0.947732
 C        -2.684039        -0.728708         1.234046
 C        -1.778208        -0.595238         2.560728
 C        -1.283817         0.709719         1.908989
 C        -2.690988         0.797476         1.122655
 C        -2.117509         1.256802        -0.251184
 C        -0.950677         0.464908         0.340141
 O         0.274231         0.941111        -0.041012
 C        -1.457971        -0.901369         0.202153
 H        -4.547876        -0.372708         0.697982
 H        -2.435328        -0.543589         3.489341
 H        -1.108319        -1.450738         2.782310
 H        -0.555670         1.489049         2.387013
 H        -3.525115         1.244093         1.651499
 H        -2.360317         0.633398        -1.224081
 H        -2.209189         2.319685        -0.422363
 H         0.325414         0.751564        -1.006312
 H        -1.732801        -1.223753        -0.864692
 H        -0.778321        -1.759814         0.271033
