19
Iteration:  4372charge 0 multiplicity 1
 O        -3.803043        -1.385565         1.175904
 C        -2.690998        -0.708626         1.097775
 C        -2.025477        -0.575269         2.450159
 C        -1.506655         0.793280         1.900381
 C        -2.750482         0.988897         1.000175
 C        -1.940268         1.481322        -0.142560
 C        -0.927469         0.435065         0.321549
 O         0.415507         0.671900        -0.024837
 C        -1.641978        -0.867764         0.064995
 H        -4.200660        -1.570171         0.274411
 H        -2.776591        -0.346914         3.188425
 H        -1.247733        -1.347282         2.647438
 H        -0.899521         1.462846         2.473026
 H        -3.681119         1.430860         1.368661
 H        -2.330537         1.492373        -1.224839
 H        -1.524678         2.489810        -0.011046
 H         1.020582         0.475826         0.763225
 H        -2.071500        -0.977284        -0.976421
 H        -1.038801        -1.734282         0.445220
