19
Iteration:  1585charge 0 multiplicity 1
 O        -3.662583        -1.735958         1.177351
 C        -2.717490        -0.583211         1.136598
 C        -1.961197        -0.435311         2.420038
 C        -1.469667         0.906298         1.781929
 C        -2.861284         1.076897         1.025416
 C        -2.010454         1.567797        -0.257889
 C        -0.975235         0.565203         0.344638
 O         0.402198         0.410723         0.092584
 C        -1.678399        -0.721283         0.069025
 H        -3.215931        -2.303476         1.778522
 H        -2.600285        -0.295243         3.298352
 H        -1.128308        -1.180366         2.565247
 H        -1.054006         1.897502         2.264843
 H        -3.760089         1.705545         1.439021
 H        -2.582618         1.518472        -1.150033
 H        -1.530320         2.602689        -0.108257
 H         0.751821        -0.468462        -0.223641
 H        -2.255963        -0.650417        -0.869863
 H        -1.124345        -1.626995         0.125226
