19
Iteration:   108
 O        -3.991715        -1.207459         0.988049
 C        -2.665116        -0.709601         1.161046
 C        -1.829604        -0.566216         2.509839
 C        -1.297330         0.740645         1.847565
 C        -2.714155         0.896665         1.114358
 C        -2.216840         1.328499        -0.247682
 C        -0.912464         0.450123         0.323374
 O         0.372836         0.909152         0.039516
 C        -1.533603        -1.006601         0.135658
 H        -4.022744        -1.965003         1.528002
 H        -2.546290        -0.187554         3.221390
 H        -1.180092        -1.410520         2.796295
 H        -0.790912         1.534141         2.408897
 H        -3.533818         1.250970         1.657791
 H        -2.704975         0.739332        -1.095344
 H        -1.973751         2.333763        -0.441088
 H         0.710243         0.406080        -0.711833
 H        -1.969910        -1.287569        -0.830733
 H        -0.810316        -1.704989         0.567641
