19
Iteration:  3687charge 0 multiplicity 1
 O        -3.853402        -1.560420         0.966422
 C        -2.780041        -0.627560         1.155860
 C        -1.876986        -0.520076         2.441901
 C        -1.375539         0.786182         1.837081
 C        -2.764393         1.079564         1.102644
 C        -1.953118         1.463107        -0.228414
 C        -0.973403         0.477359         0.403521
 O         0.407371         0.661491         0.070068
 C        -1.671091        -0.807176         0.070117
 H        -3.954239        -1.927030         1.852648
 H        -2.400490        -0.256374         3.347292
 H        -1.298885        -1.432923         2.486254
 H        -0.879955         1.596374         2.489644
 H        -3.498377         1.784939         1.538869
 H        -2.431945         1.380709        -1.201210
 H        -1.700720         2.479411        -0.246827
 H         0.636092        -0.253472        -0.024155
 H        -2.159454        -0.937442        -0.950760
 H        -1.191686        -1.746040         0.399816
