19
Iteration:  2546
 O        -3.851525        -1.471329         1.218046
 C        -2.657756        -0.656397         1.063587
 C        -1.801405        -0.537132         2.436213
 C        -1.419742         0.822392         1.833077
 C        -2.901631         0.949140         0.981816
 C        -2.026046         1.601704        -0.099400
 C        -0.961117         0.498899         0.382034
 O         0.367245         0.505124         0.020375
 C        -1.614378        -0.898944         0.030157
 H        -4.224282        -1.797458         0.332074
 H        -2.354716        -0.488546         3.374645
 H        -0.980489        -1.292491         2.560296
 H        -0.960499         1.740400         2.362116
 H        -3.837598         1.252452         1.558081
 H        -2.249864         1.635393        -1.224722
 H        -1.638709         2.619170         0.288189
 H         0.763961         1.398780        -0.065512
 H        -1.980261        -0.701174        -0.998114
 H        -0.958960        -1.755643         0.148868
