19
Iteration:  3837charge 0 multiplicity 1
 O        -3.807478        -1.587691         0.976709
 C        -2.778850        -0.625510         1.112103
 C        -1.941441        -0.543779         2.459951
 C        -1.474358         0.806538         1.872994
 C        -2.775073         1.040639         1.014239
 C        -1.921073         1.606275        -0.126771
 C        -0.909409         0.625623         0.417667
 O         0.413325         0.541728        -0.108181
 C        -1.654792        -0.845066         0.220429
 H        -4.372044        -1.799674         1.711542
 H        -2.398027        -0.362537         3.437654
 H        -1.366473        -1.517402         2.580855
 H        -0.961410         1.486355         2.510311
 H        -3.703474         1.572872         1.265545
 H        -2.170130         1.398209        -1.209529
 H        -1.798868         2.613490         0.278854
 H         0.769422        -0.346783        -0.156774
 H        -1.905548        -0.844479        -0.849827
 H        -1.076537        -1.719901         0.550018
