19
Iteration:  3076
 O        -3.855320        -1.499381         1.198788
 C        -2.697705        -0.669934         1.117450
 C        -1.806087        -0.574595         2.405836
 C        -1.456092         0.830241         1.786427
 C        -2.842672         0.994463         1.106046
 C        -2.114226         1.540372        -0.199288
 C        -0.954506         0.528002         0.301757
 O         0.482837         0.534758         0.077040
 C        -1.571906        -0.824738         0.001663
 H        -4.488188        -1.458730         0.410628
 H        -2.344868        -0.442138         3.364108
 H        -0.962314        -1.289505         2.600369
 H        -0.843986         1.626838         2.314153
 H        -3.863877         1.398695         1.486157
 H        -2.739554         1.223759        -1.046070
 H        -1.885628         2.604077        -0.277220
 H         0.617990         0.962832         0.962500
 H        -1.986420        -0.868416        -1.086988
 H        -0.970863        -1.697724         0.296588
