19
Iteration:  4387charge 0 multiplicity 1
 O        -3.934751        -1.457653         1.068876
 C        -2.768439        -0.522930         1.091630
 C        -2.008954        -0.489799         2.457473
 C        -1.384206         0.737267         1.865385
 C        -2.757503         0.989892         1.164605
 C        -2.015942         1.451853        -0.159192
 C        -0.892817         0.487495         0.334165
 O         0.447552         0.703699        -0.063367
 C        -1.521509        -0.974931         0.113580
 H        -4.071952        -1.774836         0.190097
 H        -2.790316        -0.302243         3.239838
 H        -1.457612        -1.376869         2.791433
 H        -1.001787         1.666925         2.381384
 H        -3.588245         1.416178         1.711017
 H        -2.500622         1.197262        -1.087066
 H        -1.686809         2.479722        -0.019606
 H         0.986349         0.171872         0.561565
 H        -1.707281        -1.181270        -1.029439
 H        -0.946516        -1.853661         0.432016
