19
Iteration:  2175
 O        -3.961553        -1.339772         1.047532
 C        -2.652418        -0.750592         1.156983
 C        -1.934878        -0.471875         2.595330
 C        -1.486613         0.775026         1.869049
 C        -2.754618         0.855628         1.044180
 C        -2.049031         1.305317        -0.209862
 C        -0.902977         0.481690         0.399880
 O         0.309768         0.798806        -0.228439
 C        -1.366703        -0.897936         0.295965
 H        -4.335001        -0.588722         0.489743
 H        -2.763748        -0.250904         3.265120
 H        -1.292125        -1.318436         2.825244
 H        -1.163326         1.645405         2.447349
 H        -3.637658         1.349727         1.425171
 H        -2.369506         1.089311        -1.214056
 H        -1.741113         2.357006        -0.165519
 H         0.903182         0.019237        -0.206072
 H        -1.497616        -1.044926        -0.802234
 H        -0.663998        -1.648407         0.682832
