19
Iteration:  3598charge 0 multiplicity 1
 O        -3.844494        -1.452680         0.988174
 C        -2.707053        -0.528228         1.160869
 C        -1.955120        -0.463311         2.503203
 C        -1.346639         0.787421         1.845230
 C        -2.761341         0.971995         1.067755
 C        -2.052728         1.388766        -0.154235
 C        -0.936582         0.441705         0.433137
 O         0.422086         0.584022        -0.004779
 C        -1.632254        -0.866612         0.134221
 H        -3.893618        -2.003932         0.174482
 H        -2.635901        -0.133724         3.248982
 H        -1.336865        -1.310881         2.714630
 H        -0.689435         1.442964         2.330810
 H        -3.536762         1.498910         1.603845
 H        -2.592765         1.080388        -1.051483
 H        -1.779066         2.393067        -0.259376
 H         0.455722         1.495911        -0.311712
 H        -2.175169        -1.013201        -0.838717
 H        -1.104796        -1.815931         0.450681
