19
Iteration:  4909charge 0 multiplicity 1
 O        -3.916359        -1.294733         0.861952
 C        -2.718135        -0.633790         1.184518
 C        -1.849386        -0.508130         2.519899
 C        -1.424946         0.775359         1.897067
 C        -2.830150         0.941275         1.152151
 C        -1.998654         1.370491        -0.160152
 C        -0.901959         0.435329         0.375135
 O         0.402268         0.730412        -0.076864
 C        -1.604487        -0.906140         0.107155
 H        -3.895535        -2.223768         1.168808
 H        -2.450206        -0.316086         3.391281
 H        -1.237377        -1.346466         2.841626
 H        -0.916386         1.543110         2.508599
 H        -3.716365         1.438600         1.646204
 H        -2.523771         1.228899        -1.146691
 H        -1.896767         2.430094         0.033274
 H         1.142017         0.193503         0.232518
 H        -1.929287        -1.183579        -0.939214
 H        -1.172277        -1.895068         0.453607
