19
Iteration:  3934
 O        -3.879275        -1.255917         0.851689
 C        -2.673645        -0.640429         1.144944
 C        -2.002255        -0.620732         2.526452
 C        -1.393039         0.700213         1.964729
 C        -2.713452         0.923794         1.132514
 C        -1.996097         1.347890        -0.145348
 C        -0.951729         0.421845         0.360531
 O         0.303751         0.826658        -0.138076
 C        -1.516106        -0.962416         0.168665
 H        -4.423498        -1.165416         1.645658
 H        -2.665286        -0.161837         3.274488
 H        -1.302285        -1.361908         2.960045
 H        -0.910625         1.554541         2.473191
 H        -3.596254         1.408823         1.602585
 H        -2.457498         1.146395        -1.154501
 H        -1.752235         2.444214        -0.078622
 H         1.071324         0.296736         0.126760
 H        -1.757520        -1.064715        -0.899087
 H        -0.796823        -1.746279         0.459916
