19
Iteration:  3567charge 0 multiplicity 1
 O        -3.823292        -1.538390         1.163385
 C        -2.651688        -0.657983         1.126461
 C        -1.983183        -0.527381         2.464876
 C        -1.543572         0.854967         1.846061
 C        -2.818333         0.968011         0.946226
 C        -2.010348         1.630487        -0.136958
 C        -0.917693         0.552667         0.363872
 O         0.452508         0.429977        -0.099833
 C        -1.554382        -0.855388         0.160344
 H        -4.454856        -1.316904         0.454835
 H        -2.728625        -0.467020         3.276257
 H        -1.243488        -1.284393         2.729638
 H        -0.979384         1.650971         2.388359
 H        -3.620154         1.445673         1.480362
 H        -2.413723         1.628806        -1.191550
 H        -1.701947         2.683011         0.086887
 H         0.944033         1.005667         0.555807
 H        -2.077005        -1.097022        -0.788260
 H        -0.790500        -1.593609         0.410596
