19
Iteration:  4733
 O        -3.949929        -1.422381         0.919292
 C        -2.771265        -0.587574         1.147153
 C        -1.964438        -0.520315         2.603958
 C        -1.322192         0.725048         1.861459
 C        -2.768058         0.940366         1.155420
 C        -2.069111         1.410946        -0.167059
 C        -0.906062         0.475488         0.270600
 O         0.447668         0.660106        -0.027065
 C        -1.530573        -0.850430         0.233251
 H        -3.954919        -1.347940        -0.074518
 H        -2.410499        -0.018012         3.433152
 H        -1.496690        -1.495227         2.849347
 H        -0.912588         1.569303         2.524596
 H        -3.465117         1.419311         1.786619
 H        -2.492902         1.175069        -1.148780
 H        -1.938231         2.454791        -0.114328
 H         0.538366         0.589344        -1.017270
 H        -1.847639        -1.234904        -0.805541
 H        -0.756064        -1.519931         0.710424
