19
Iteration:   316
 O        -3.789199        -1.471767         0.791943
 C        -2.670641        -0.608666         1.164929
 C        -1.979206        -0.549994         2.674039
 C        -1.347988         0.747399         2.025060
 C        -2.729041         0.973008         1.282699
 C        -2.090559         1.535081         0.024662
 C        -0.907011         0.489504         0.323625
 O         0.242170         0.607790        -0.463544
 C        -1.494999        -0.928849         0.227184
 H        -4.117932        -1.261642        -0.158273
 H        -2.697395        -0.104242         3.384678
 H        -1.435437        -1.435336         3.099979
 H        -0.761151         1.396291         2.630139
 H        -3.627224         1.332182         1.778023
 H        -2.799054         1.394668        -0.882681
 H        -1.959077         2.577910         0.209575
 H         0.590247         1.509446        -0.233204
 H        -1.757202        -1.319561        -0.817857
 H        -0.799069        -1.645643         0.725971
