19
Iteration:   342charge 0 multiplicity 1
 O        -3.828081        -1.426216         1.075127
 C        -2.663467        -0.683059         1.151809
 C        -1.871398        -0.668782         2.448465
 C        -1.452367         0.770939         1.885355
 C        -2.797967         0.924317         1.168481
 C        -2.043734         1.553006        -0.073485
 C        -0.921397         0.596975         0.406787
 O         0.358000         0.568450        -0.222353
 C        -1.600631        -0.838298         0.116809
 H        -4.105429        -1.579621         0.123715
 H        -2.501163        -0.525567         3.337171
 H        -1.157736        -1.459260         2.581263
 H        -1.059661         1.484459         2.667866
 H        -3.587158         1.498450         1.852579
 H        -2.516740         1.463774        -1.058428
 H        -1.969392         2.688388         0.205818
 H         0.693999         1.493528        -0.360772
 H        -1.935968        -1.035905        -0.882095
 H        -0.878314        -1.654328         0.309495
