19
Iteration:  2413
 O        -3.685717        -1.643555         1.306930
 C        -2.804919        -0.655849         1.064150
 C        -2.018030        -0.531565         2.363420
 C        -1.388937         0.727651         1.750354
 C        -2.722043         1.144869         1.023556
 C        -1.971014         1.623955        -0.176820
 C        -0.899601         0.507611         0.303401
 O         0.462014         0.627645         0.090756
 C        -1.834715        -0.963677         0.038056
 H        -4.267018        -1.926680         0.509351
 H        -2.833134        -0.251854         3.042097
 H        -1.416452        -1.358673         2.774733
 H        -0.945229         1.549246         2.323121
 H        -3.477385         1.761519         1.572174
 H        -2.532104         1.577872        -1.136386
 H        -1.353273         2.535257         0.068845
 H         0.717367         1.377016         0.661652
 H        -2.171829        -0.881507        -0.996338
 H        -1.213975        -1.856171         0.103075
