19
Iteration:  2839
 O        -3.983014        -1.293208         1.142959
 C        -2.710286        -0.713212         1.091666
 C        -1.952823        -0.636736         2.471321
 C        -1.459585         0.761027         1.964144
 C        -2.811079         0.855843         1.015385
 C        -1.973340         1.537628        -0.048471
 C        -0.902518         0.494785         0.326491
 O         0.394725         0.697380        -0.217126
 C        -1.430684        -0.940411         0.210922
 H        -4.000830        -1.907928         0.346463
 H        -2.701578        -0.556203         3.253219
 H        -1.236868        -1.487444         2.616656
 H        -1.042307         1.590500         2.652963
 H        -3.866757         1.307178         1.308074
 H        -2.303632         1.627864        -1.071193
 H        -1.633877         2.537762         0.166549
 H         0.508047         1.550058        -0.709950
 H        -1.498476        -1.356792        -0.787569
 H        -0.683395        -1.559672         0.708760
