19
Iteration:  4024charge 0 multiplicity 1
 O        -3.942485        -1.493273         1.088035
 C        -2.782972        -0.644156         1.080477
 C        -1.948730        -0.617491         2.432152
 C        -1.453277         0.749072         1.846169
 C        -2.740796         0.975766         1.160197
 C        -2.025682         1.580624        -0.197888
 C        -0.909183         0.501562         0.298360
 O         0.606875         0.694303         0.117272
 C        -1.661753        -0.835842        -0.055455
 H        -4.008864        -1.936123         1.915000
 H        -2.533029        -0.562967         3.394850
 H        -1.050208        -1.348299         2.482420
 H        -0.916930         1.608364         2.131170
 H        -3.604586         1.496298         1.568997
 H        -2.608898         1.465501        -1.223980
 H        -1.872059         2.658275        -0.010121
 H         0.976621        -0.115301         0.421065
 H        -2.361016        -0.696158        -0.964465
 H        -1.130294        -1.777662        -0.097027
