19
Iteration:  4990
 O        -3.881488        -1.537420         0.998547
 C        -2.735828        -0.709354         1.129726
 C        -1.884586        -0.581403         2.483754
 C        -1.400814         0.685279         1.889931
 C        -2.827532         0.954196         1.080895
 C        -1.979398         1.564121        -0.177561
 C        -0.908726         0.639121         0.400943
 O         0.554918         0.556098         0.029158
 C        -1.738833        -0.780101         0.069331
 H        -4.611575        -1.003534         1.432548
 H        -2.505566        -0.389755         3.400353
 H        -1.130205        -1.361585         2.630700
 H        -1.012560         1.554193         2.405041
 H        -3.648195         1.545689         1.505755
 H        -2.344254         1.300000        -1.106223
 H        -1.933756         2.634718         0.013013
 H         0.641647         1.070642        -0.826820
 H        -2.216327        -0.789104        -0.910981
 H        -1.048173        -1.617445         0.163847
