19
Iteration:  2187charge 0 multiplicity 1
 O        -3.936499        -1.399577         1.138009
 C        -2.720921        -0.698628         1.148417
 C        -1.980210        -0.501247         2.508676
 C        -1.510539         0.866771         1.929724
 C        -2.862303         0.872316         0.982099
 C        -1.951699         1.381489        -0.165829
 C        -0.906215         0.510458         0.450819
 O         0.418588         0.776586        -0.253003
 C        -1.416357        -0.962522         0.202031
 H        -4.526951        -1.239303         0.418019
 H        -2.485443        -0.422510         3.460593
 H        -1.096328        -1.070228         2.817977
 H        -1.026761         1.725212         2.525100
 H        -3.833591         1.249270         1.414735
 H        -2.245728         1.129034        -1.187925
 H        -1.687586         2.426830        -0.046180
 H         0.946191        -0.061242        -0.319294
 H        -1.618292        -1.178537        -0.856564
 H        -0.716223        -1.689420         0.613873
