19
Iteration:   250charge 0 multiplicity 1
 O        -3.910947        -1.395077         1.260325
 C        -2.705548        -0.653489         1.110978
 C        -1.770752        -0.648588         2.373043
 C        -1.422817         0.805709         1.779644
 C        -2.818801         0.878078         1.093060
 C        -2.131400         1.466766        -0.092283
 C        -0.939911         0.508163         0.336508
 O         0.443609         0.649538         0.059413
 C        -1.595078        -0.800974        -0.019304
 H        -4.226506        -1.810184         0.491398
 H        -2.320086        -0.548293         3.314859
 H        -1.063062        -1.527882         2.375328
 H        -0.880068         1.562017         2.283983
 H        -3.655403         1.353938         1.509041
 H        -2.461266         1.360969        -1.205385
 H        -1.764026         2.467320         0.064769
 H         0.738099         1.499855        -0.277232
 H        -2.015939        -0.849136        -1.059977
 H        -1.015497        -1.731251         0.094582
