19
Iteration:  4641
 O        -3.787657        -1.417113         1.189729
 C        -2.670816        -0.651423         1.095867
 C        -1.877747        -0.532518         2.389046
 C        -1.465966         0.796944         1.807848
 C        -2.839637         1.019425         1.010076
 C        -2.029923         1.452704        -0.165573
 C        -0.902958         0.417115         0.327706
 O         0.463704         0.618153         0.226963
 C        -1.717664        -0.853839         0.002268
 H        -4.371814        -1.511103         0.453429
 H        -2.586256        -0.334130         3.231263
 H        -1.262065        -1.329272         2.654114
 H        -0.838529         1.558611         2.196582
 H        -3.752596         1.621046         1.404772
 H        -2.293411         1.269565        -1.231412
 H        -1.771288         2.591979         0.146540
 H         0.645911         0.231959        -0.622058
 H        -2.266312        -0.857940        -1.017326
 H        -1.008639        -1.720548         0.199782
