19
Iteration:  3994charge 0 multiplicity 1
 O        -3.770984        -1.487951         1.003028
 C        -2.689367        -0.613906         1.048378
 C        -1.936175        -0.570039         2.388740
 C        -1.455659         0.792499         1.871980
 C        -2.819054         0.930343         1.085095
 C        -1.942423         1.607396        -0.117023
 C        -0.986839         0.502640         0.472617
 O         0.332342         0.551480        -0.013911
 C        -1.576182        -0.801109         0.101242
 H        -4.450441        -1.385271         1.731024
 H        -2.426561        -0.540408         3.348246
 H        -1.142421        -1.301252         2.616942
 H        -0.983175         1.722310         2.283895
 H        -3.687184         1.428250         1.512088
 H        -2.229699         1.570928        -1.161100
 H        -1.707005         2.551383         0.344369
 H         0.621694        -0.374129        -0.286165
 H        -1.917067        -0.669325        -0.933184
 H        -0.942486        -1.675812         0.173328
