19
Iteration:  4081charge 0 multiplicity 1
 O        -4.009268        -1.182750         0.884532
 C        -2.719104        -0.728104         1.116583
 C        -1.937653        -0.633383         2.507707
 C        -1.416988         0.688039         1.911122
 C        -2.796130         0.856654         1.188414
 C        -2.047401         1.426419        -0.014960
 C        -0.849795         0.562808         0.396236
 O         0.433601         0.715029        -0.259257
 C        -1.462696        -0.879100         0.196597
 H        -4.012395        -2.128309         0.501104
 H        -2.586924        -0.229662         3.319969
 H        -1.195229        -1.407626         2.919888
 H        -1.123975         1.557898         2.560278
 H        -3.699751         1.358651         1.550143
 H        -2.565274         1.323039        -1.025949
 H        -1.908176         2.531021         0.181120
 H         1.089463         0.325666         0.408653
 H        -1.830804        -1.010588        -0.820940
 H        -0.952660        -1.826688         0.440346
