19
Iteration:  4496
 O        -3.835628        -1.525659         1.199403
 C        -2.748406        -0.639278         1.043070
 C        -1.876127        -0.462912         2.379608
 C        -1.433945         0.869616         1.831901
 C        -2.764364         1.042276         1.100102
 C        -1.925521         1.467464        -0.150121
 C        -0.921928         0.455774         0.366699
 O         0.384268         0.599857         0.203059
 C        -1.708886        -0.915615        -0.074031
 H        -4.470044        -1.539041         0.410169
 H        -2.541018        -0.480899         3.202623
 H        -1.168068        -1.200140         2.717081
 H        -0.970900         1.728356         2.420391
 H        -3.652464         1.561489         1.391332
 H        -2.292372         1.292547        -1.205375
 H        -1.717690         2.562963        -0.110146
 H         0.981602         0.341803        -0.558877
 H        -1.887702        -0.879079        -1.210853
 H        -1.259857        -1.867259         0.227856
