19
Iteration:  2087
 O        -3.879509        -1.446674         1.374741
 C        -2.646451        -0.714163         1.027930
 C        -1.981522        -0.445904         2.383296
 C        -1.573665         0.850545         1.822009
 C        -2.888515         0.876317         0.942903
 C        -2.005860         1.581708        -0.151577
 C        -0.926085         0.582101         0.307575
 O         0.525592         0.545910        -0.028192
 C        -1.563542        -0.917779        -0.010714
 H        -3.507913        -2.267012         1.844551
 H        -2.734489        -0.373418         3.175554
 H        -1.299188        -1.301981         2.613731
 H        -1.313383         1.822644         2.195123
 H        -3.759453         1.317127         1.308427
 H        -2.241215         1.594664        -1.176645
 H        -1.712913         2.531845         0.324967
 H         1.057423         0.467741         0.791120
 H        -1.729739        -0.944553        -1.133692
 H        -0.824129        -1.670093         0.323529
