19
Iteration:  1843charge 0 multiplicity 1
 O        -3.757911        -1.432836         0.700896
 C        -2.668205        -0.606080         1.284628
 C        -2.030112        -0.549440         2.695118
 C        -1.377981         0.722452         1.933415
 C        -2.772238         0.966364         1.139838
 C        -2.052080         1.490996        -0.086779
 C        -0.937849         0.533295         0.346589
 O         0.309932         0.568793        -0.299108
 C        -1.572426        -0.857866         0.288228
 H        -3.885261        -2.144636         1.333858
 H        -2.526768        -0.110095         3.590494
 H        -1.332437        -1.377738         2.979271
 H        -0.712070         1.438520         2.431580
 H        -3.521372         1.509442         1.751244
 H        -2.612402         1.468925        -1.057147
 H        -1.675191         2.522539        -0.009311
 H         0.365983         1.444177        -0.764921
 H        -2.045042        -1.196934        -0.684078
 H        -0.709704        -1.612376         0.444163
