19
Iteration:   515charge 0 multiplicity 1
 O        -3.949538        -1.305071         1.116211
 C        -2.705262        -0.691394         1.129640
 C        -1.721198        -0.606407         2.397761
 C        -1.387987         0.739655         1.831753
 C        -2.855671         0.851703         1.091747
 C        -2.191529         1.511210        -0.094194
 C        -0.917608         0.544879         0.313578
 O         0.483567         0.739765         0.060032
 C        -1.614552        -0.926455        -0.010789
 H        -3.793016        -2.173612         1.481557
 H        -2.351865        -0.540466         3.329742
 H        -0.896847        -1.338686         2.528775
 H        -0.881711         1.601745         2.369464
 H        -3.737636         1.278053         1.706830
 H        -2.728394         1.393156        -1.048958
 H        -2.049569         2.563987         0.112679
 H         0.831887         0.293427        -0.721024
 H        -2.017414        -0.818711        -1.041965
 H        -0.947691        -1.763874         0.224336
