19
Iteration:  1941charge 0 multiplicity 1
 O        -3.725888        -1.567572         1.066493
 C        -2.728138        -0.621920         1.177465
 C        -1.881857        -0.455850         2.472538
 C        -1.450273         0.810981         1.775805
 C        -2.814554         0.979106         1.084182
 C        -2.070451         1.538760        -0.221620
 C        -0.966234         0.494824         0.326594
 O         0.428397         0.569950         0.002046
 C        -1.624613        -0.830415         0.094558
 H        -4.504196        -1.267208         1.564279
 H        -2.653349        -0.157427         3.214537
 H        -1.184373        -1.308524         2.691531
 H        -0.898659         1.675821         2.177892
 H        -3.728604         1.378084         1.635218
 H        -2.497621         1.319321        -1.239471
 H        -1.856336         2.607604        -0.136527
 H         0.858534         0.046982         0.718177
 H        -2.085919        -1.031177        -0.941183
 H        -1.000274        -1.772396         0.370490
