19
Iteration:   980
 O        -3.800314        -1.306231         0.929583
 C        -2.667159        -0.654306         1.237835
 C        -2.004313        -0.637305         2.581634
 C        -1.347874         0.691774         1.936910
 C        -2.716633         0.956253         1.232538
 C        -2.103524         1.375410        -0.171995
 C        -0.926694         0.479206         0.333849
 O         0.295697         0.754639        -0.359892
 C        -1.529661        -0.958071         0.312569
 H        -4.045319        -1.197268        -0.047648
 H        -2.759192        -0.304632         3.317863
 H        -1.488114        -1.464683         3.045856
 H        -0.727768         1.462806         2.603645
 H        -3.484332         1.590768         1.664129
 H        -2.572406         1.141125        -1.197882
 H        -1.930053         2.442635        -0.181931
 H         0.536045         1.692289        -0.300229
 H        -1.794943        -1.346067        -0.654990
 H        -0.859907        -1.711176         0.741976
