19
Iteration:  1385charge 0 multiplicity 1
 O        -3.701289        -1.662941         1.219560
 C        -2.727375        -0.656885         1.145326
 C        -1.813374        -0.475269         2.294170
 C        -1.481239         0.877816         1.725327
 C        -2.816235         1.064860         1.030382
 C        -2.035033         1.585303        -0.220263
 C        -0.992685         0.594380         0.300010
 O         0.411997         0.449528         0.293249
 C        -1.741890        -0.790954        -0.045849
 H        -3.893184        -1.919132         2.181185
 H        -2.221455        -0.341175         3.304998
 H        -0.992046        -1.216711         2.379076
 H        -0.968258         1.701369         2.206369
 H        -3.700540         1.493887         1.488766
 H        -2.445942         1.443314        -1.242990
 H        -1.861529         2.618770        -0.040892
 H         0.692915         0.176874        -0.593190
 H        -2.348933        -0.770779        -0.961680
 H        -1.087425        -1.651371         0.005986
