19
Iteration:  2985charge 0 multiplicity 1
 O        -3.857558        -1.309954         0.863688
 C        -2.705671        -0.625550         1.222317
 C        -1.899390        -0.616631         2.528797
 C        -1.333727         0.768145         1.867068
 C        -2.759900         0.962378         1.203755
 C        -2.200004         1.418259        -0.178192
 C        -0.984499         0.465653         0.280899
 O         0.358451         0.622559        -0.044070
 C        -1.467823        -0.903796         0.261217
 H        -3.916737        -1.618725        -0.045365
 H        -2.407013        -0.355979         3.478172
 H        -1.223607        -1.424885         2.745543
 H        -0.715353         1.559984         2.236910
 H        -3.515456         1.626589         1.549995
 H        -2.736503         1.084656        -1.024135
 H        -1.984778         2.428300        -0.153056
 H         0.401085         1.511294        -0.455151
 H        -1.751875        -1.307925        -0.730994
 H        -0.705946        -1.609762         0.728170
