19
Iteration:  1101charge 0 multiplicity 1
 O        -3.891602        -1.445452         1.163704
 C        -2.657624        -0.703522         1.081153
 C        -1.905428        -0.611720         2.384806
 C        -1.421065         0.706467         1.873879
 C        -2.784347         0.882265         1.185953
 C        -2.013513         1.538989        -0.006944
 C        -0.929669         0.547675         0.323216
 O         0.408389         0.670744        -0.144359
 C        -1.555202        -0.864255         0.043311
 H        -4.480934        -0.995113         0.508410
 H        -2.582525        -0.423724         3.237172
 H        -1.222240        -1.395182         2.703887
 H        -0.874015         1.536257         2.516902
 H        -3.743395         1.279116         1.658086
 H        -2.516287         1.355945        -1.025571
 H        -1.893860         2.616665         0.135075
 H         0.540703         1.645248        -0.251104
 H        -2.038955        -0.884933        -0.933910
 H        -0.999916        -1.781771         0.191412
