19
Iteration:  4043charge 0 multiplicity 1
 O        -3.932039        -1.395791         1.058889
 C        -2.724552        -0.586346         1.078206
 C        -1.904396        -0.625467         2.338719
 C        -1.329745         0.659687         1.788428
 C        -2.770166         1.000449         1.084358
 C        -1.989260         1.457849        -0.112464
 C        -0.903211         0.469663         0.339589
 O         0.385699         0.771471         0.103390
 C        -1.694606        -0.857112         0.020821
 H        -3.919264        -2.141934         1.667629
 H        -2.416605        -0.286739         3.258107
 H        -1.306493        -1.493840         2.648626
 H        -0.795145         1.270495         2.496877
 H        -3.550071         1.582175         1.611561
 H        -2.432165         1.216069        -1.105105
 H        -1.584097         2.467492         0.012839
 H         0.909124         0.312971         0.756513
 H        -1.940838        -0.842685        -1.079223
 H        -1.188892        -1.790621         0.347113
