19
Iteration:   996charge 0 multiplicity 1
 O        -3.829706        -1.536601         1.014593
 C        -2.751463        -0.581296         1.177046
 C        -2.034960        -0.516886         2.576482
 C        -1.394446         0.720277         1.952149
 C        -2.719681         1.067275         1.188223
 C        -1.976913         1.410578        -0.020163
 C        -0.906688         0.404598         0.317265
 O         0.289031         0.737406        -0.392435
 C        -1.514628        -0.905226         0.182082
 H        -4.031086        -1.424867         0.025926
 H        -2.647401        -0.186447         3.426283
 H        -1.347761        -1.381210         2.694776
 H        -0.871918         1.433701         2.450047
 H        -3.627375         1.427289         1.733978
 H        -2.511879         1.151684        -0.891714
 H        -1.468682         2.409052        -0.062278
 H         0.748525         1.448974         0.127351
 H        -1.887066        -1.067611        -0.869207
 H        -0.874152        -1.701718         0.598316
