19
Iteration:  2135
 O        -3.845928        -1.465455         0.805891
 C        -2.728078        -0.553400         1.271099
 C        -1.889953        -0.462459         2.550896
 C        -1.365396         0.771088         1.801009
 C        -2.710017         1.043467         1.129746
 C        -2.128753         1.280431        -0.225625
 C        -0.922572         0.412889         0.336712
 O         0.335962         0.782795        -0.100496
 C        -1.536188        -0.972974         0.248242
 H        -4.480425        -1.690500         1.476578
 H        -2.469627        -0.029891         3.391248
 H        -1.180634        -1.109650         3.051592
 H        -0.819289         1.709344         2.233197
 H        -3.529186         1.648513         1.694709
 H        -2.791513         0.821712        -1.009468
 H        -1.849658         2.323719        -0.375059
 H         1.016599         0.664016         0.582873
 H        -1.970509        -1.228755        -0.694118
 H        -1.144375        -1.892873         0.670833
