19
Iteration:  4724
 O        -3.933164        -1.385667         0.885751
 C        -2.756580        -0.667352         1.234389
 C        -1.942211        -0.481747         2.582316
 C        -1.345738         0.725856         1.897013
 C        -2.718694         0.876158         1.137203
 C        -2.069043         1.438505        -0.184284
 C        -0.932740         0.546285         0.387280
 O         0.436713         0.610053        -0.062193
 C        -1.549604        -0.814727         0.187169
 H        -4.088260        -1.409492        -0.084455
 H        -2.597020        -0.152719         3.403312
 H        -1.306302        -1.346510         2.980051
 H        -0.885182         1.608909         2.419389
 H        -3.650808         1.323071         1.500375
 H        -2.556613         1.141179        -1.113528
 H        -1.749769         2.431064        -0.243939
 H         0.463886         0.587727        -1.045437
 H        -1.780768        -1.178942        -0.820727
 H        -0.881289        -1.551686         0.614456
