19
Iteration:  3645
 O        -4.024936        -1.200361         1.007218
 C        -2.733835        -0.715778         1.119841
 C        -1.956280        -0.568140         2.466422
 C        -1.377324         0.767904         1.821726
 C        -2.760176         0.817008         1.050659
 C        -2.079828         1.377686        -0.121274
 C        -0.843600         0.557478         0.390835
 O         0.420733         0.729473        -0.028573
 C        -1.472237        -0.988640         0.182745
 H        -4.118949        -2.080174         1.328729
 H        -2.610324        -0.064658         3.205697
 H        -1.280808        -1.281735         2.929334
 H        -0.899021         1.625414         2.501522
 H        -3.705532         1.140815         1.522844
 H        -2.303397         1.427277        -1.202249
 H        -1.817796         2.460265         0.123315
 H         0.513466         0.557609        -0.962716
 H        -1.418186        -0.983767        -0.910313
 H        -0.769514        -1.711416         0.545448
