19
Iteration:  1140
 O        -3.779082        -1.440501         0.788782
 C        -2.751391        -0.604920         1.262841
 C        -2.050168        -0.609360         2.550299
 C        -1.352229         0.662109         2.018676
 C        -2.703402         0.995637         1.307262
 C        -2.033069         1.507298         0.033377
 C        -0.888466         0.552161         0.285951
 O         0.241498         0.668586        -0.498608
 C        -1.570565        -0.888519         0.355160
 H        -3.464416        -1.704988        -0.124510
 H        -2.600122        -0.347480         3.499975
 H        -1.569352        -1.579727         2.832224
 H        -0.829321         1.308827         2.670967
 H        -3.516365         1.333435         1.870747
 H        -2.228961         1.369487        -1.026667
 H        -1.759423         2.598997         0.075411
 H         0.665672         1.518317        -0.541053
 H        -1.850462        -1.317747        -0.651210
 H        -0.813217        -1.683068         0.648469
