19
Iteration:  4309charge 0 multiplicity 1
 O        -3.803955        -1.422464         1.064104
 C        -2.683748        -0.604728         1.108820
 C        -1.932452        -0.548502         2.505590
 C        -1.406736         0.727863         1.849013
 C        -2.732893         1.015935         1.101230
 C        -2.108179         1.554822        -0.274114
 C        -0.946728         0.443955         0.385146
 O         0.360839         0.538719         0.092165
 C        -1.585771        -0.854811         0.024001
 H        -4.312771        -1.325998         0.224372
 H        -2.592630        -0.307157         3.350261
 H        -1.291511        -1.444173         2.762918
 H        -0.702530         1.459641         2.342781
 H        -3.496977         1.408264         1.713108
 H        -2.655367         1.313627        -1.251832
 H        -1.710953         2.547410        -0.420658
 H         0.788258         1.052418         0.841870
 H        -1.959454        -1.116308        -1.088094
 H        -0.968927        -1.747995         0.304873
