19
Iteration:  1158
 O        -3.849155        -1.389063         0.721618
 C        -2.698032        -0.609013         1.185429
 C        -1.900053        -0.641736         2.572600
 C        -1.339643         0.752784         1.977841
 C        -2.739547         1.003706         1.339035
 C        -2.138942         1.490737         0.025631
 C        -0.973127         0.514226         0.393639
 O         0.290952         0.532980        -0.401095
 C        -1.495356        -0.815791         0.262198
 H        -3.493529        -2.145057         0.189959
 H        -2.486252        -0.400878         3.455002
 H        -1.152927        -1.430106         2.790777
 H        -0.838993         1.529683         2.535761
 H        -3.519492         1.621757         1.886191
 H        -2.891762         1.304131        -0.787825
 H        -1.849521         2.576183         0.085458
 H         0.406024         1.472843        -0.554522
 H        -1.673806        -1.008574        -0.803349
 H        -0.908096        -1.647209         0.656687
