19
Iteration:  2296
 O        -3.908019        -1.426901         1.193629
 C        -2.697230        -0.669972         1.157013
 C        -2.017299        -0.534810         2.481297
 C        -1.481638         0.810204         1.812981
 C        -2.796922         0.959942         1.044271
 C        -1.984221         1.424331        -0.220459
 C        -0.895740         0.457262         0.348430
 O         0.450658         0.735726        -0.043246
 C        -1.459292        -1.004974         0.149683
 H        -4.443634        -1.219557         0.402300
 H        -2.759124        -0.260010         3.253391
 H        -1.281539        -1.312706         2.845353
 H        -0.865573         1.587094         2.404592
 H        -3.702619         1.341908         1.645858
 H        -2.431831         1.088636        -1.157840
 H        -1.783013         2.505743        -0.134435
 H         0.272498         1.451174        -0.662315
 H        -1.650944        -1.050270        -0.962810
 H        -0.795542        -1.862974         0.362748
