19
Iteration:  3193
 O        -3.939807        -1.310802         1.052325
 C        -2.705014        -0.643517         1.138302
 C        -1.858348        -0.583406         2.472366
 C        -1.435243         0.816059         1.847679
 C        -2.880644         0.848490         1.035548
 C        -2.056949         1.508647        -0.143563
 C        -0.930396         0.543698         0.339964
 O         0.458426         0.550946        -0.012374
 C        -1.500372        -0.865443         0.142469
 H        -3.685113        -2.245499         0.908562
 H        -2.425693        -0.543904         3.430873
 H        -0.972489        -1.138969         2.759828
 H        -0.977053         1.629192         2.495770
 H        -3.872878         1.258620         1.466503
 H        -2.428671         1.561526        -1.209895
 H        -2.060448         2.539219         0.284913
 H         0.515197         0.901374        -0.895692
 H        -1.797489        -1.135352        -0.846432
 H        -0.942834        -1.642190         0.645740
