19
Iteration:  1197
 O        -3.964779        -1.299221         1.160480
 C        -2.709198        -0.707257         1.118028
 C        -1.748302        -0.686776         2.396780
 C        -1.429477         0.685446         1.781474
 C        -2.775850         0.888749         1.119180
 C        -2.121804         1.493854        -0.061631
 C        -0.887011         0.504060         0.286976
 O         0.444392         0.710534         0.009463
 C        -1.639435        -0.826287        -0.015893
 H        -3.910419        -2.238859         1.291110
 H        -2.416376        -0.574773         3.277161
 H        -0.992688        -1.484511         2.446807
 H        -0.906475         1.605285         2.296521
 H        -3.676970         1.282865         1.599434
 H        -2.488041         1.424899        -1.085506
 H        -1.852655         2.512789         0.209466
 H         0.748135         1.594472         0.337418
 H        -2.152154        -0.649339        -0.972855
 H        -1.046651        -1.755874         0.053977
