19
Iteration:   339
 O        -3.831786        -1.429570         1.032245
 C        -2.649296        -0.693519         1.182343
 C        -1.899542        -0.651490         2.466080
 C        -1.447780         0.763826         1.908030
 C        -2.786958         0.922264         1.187319
 C        -2.046307         1.547829        -0.057837
 C        -0.941170         0.604642         0.376692
 O         0.341106         0.564690        -0.253071
 C        -1.571024        -0.831792         0.140727
 H        -4.109666        -1.526501         0.151722
 H        -2.554568        -0.519742         3.352118
 H        -1.147796        -1.449558         2.582617
 H        -1.057270         1.487199         2.634997
 H        -3.547200         1.484853         1.824919
 H        -2.539019         1.437058        -1.089966
 H        -1.859725         2.606267         0.215488
 H         0.755382         1.432533        -0.395127
 H        -1.935857        -0.972361        -0.922769
 H        -0.800742        -1.572286         0.409603
