19
Iteration:  3120charge 0 multiplicity 1
 O        -3.923009        -1.456494         1.002796
 C        -2.675633        -0.663359         1.120342
 C        -1.845856        -0.540170         2.510313
 C        -1.448248         0.763610         1.853371
 C        -2.795503         0.951976         1.078689
 C        -2.084840         1.480384        -0.143344
 C        -0.927810         0.468169         0.366998
 O         0.429921         0.652732        -0.040464
 C        -1.563019        -0.940020         0.134554
 H        -4.505105        -0.840033         1.573149
 H        -2.563614        -0.590561         3.343368
 H        -1.102644        -1.371351         2.692207
 H        -0.962050         1.708105         2.223648
 H        -3.683603         1.520809         1.581650
 H        -2.386709         1.282795        -1.168950
 H        -1.626850         2.463846        -0.116781
 H         0.676197         1.566772        -0.379530
 H        -1.858600        -1.007967        -1.003340
 H        -0.759176        -1.612906         0.476330
