19
Iteration:  1734charge 0 multiplicity 1
 O        -3.803243        -1.526910         1.268329
 C        -2.742918        -0.677166         1.134305
 C        -1.814175        -0.575552         2.325646
 C        -1.475126         0.898237         1.784820
 C        -2.818029         0.935897         0.996679
 C        -2.067962         1.580504        -0.198016
 C        -0.936884         0.546815         0.307321
 O         0.432250         0.424692         0.135948
 C        -1.703497        -0.704996         0.047651
 H        -3.535033        -2.365965         0.937890
 H        -2.208422        -0.575865         3.357378
 H        -0.901495        -1.215331         2.360348
 H        -1.054115         1.719683         2.379232
 H        -3.778953         1.445179         1.258245
 H        -2.382803         1.415847        -1.291994
 H        -1.890246         2.663588         0.050887
 H         0.911079         1.245460         0.308391
 H        -2.252375        -0.568534        -0.939371
 H        -1.023916        -1.664305         0.011940
