19
Iteration:  1848
 O        -3.804763        -1.445405         0.764495
 C        -2.722881        -0.638133         1.284010
 C        -2.016742        -0.547640         2.663342
 C        -1.374196         0.726286         1.913384
 C        -2.732448         0.942991         1.153228
 C        -2.047659         1.510575        -0.100817
 C        -0.913546         0.505883         0.318273
 O         0.319928         0.601017        -0.257863
 C        -1.547885        -0.844743         0.239871
 H        -3.805766        -2.263464         1.311758
 H        -2.608206        -0.056713         3.435409
 H        -1.385002        -1.361744         2.979606
 H        -0.728824         1.495274         2.397836
 H        -3.455078         1.604059         1.659282
 H        -2.498950         1.434280        -1.087098
 H        -1.822343         2.607367         0.130653
 H         0.402697         1.426574        -0.730624
 H        -1.979615        -1.134306        -0.694753
 H        -0.849900        -1.591215         0.494952
