19
Iteration:  1754charge 0 multiplicity 1
 O        -3.862937        -1.520395         1.385089
 C        -2.749414        -0.630237         1.069173
 C        -1.787116        -0.626618         2.327714
 C        -1.447778         0.792295         1.756925
 C        -2.815817         1.083792         1.068384
 C        -1.947964         1.522949        -0.277879
 C        -1.008150         0.473738         0.345713
 O         0.450041         0.663538         0.198591
 C        -1.707041        -0.869786        -0.114964
 H        -3.711781        -2.231101         0.753477
 H        -2.440926        -0.455670         3.230000
 H        -1.088681        -1.484333         2.488351
 H        -0.813965         1.365198         2.336900
 H        -3.577291         1.518557         1.654377
 H        -2.516165         1.243642        -1.223167
 H        -1.752365         2.582438        -0.267093
 H         0.660039         1.627099         0.355181
 H        -2.085536        -0.951540        -1.185767
 H        -1.260183        -1.939569         0.104305
