19
Iteration:  1921
 O        -3.847497        -1.492043         1.249072
 C        -2.674694        -0.681666         1.112285
 C        -1.715156        -0.484588         2.348313
 C        -1.440508         0.849879         1.730865
 C        -2.845337         0.974495         1.050017
 C        -2.146635         1.464802        -0.204978
 C        -0.965383         0.532874         0.246797
 O         0.480075         0.569244         0.221322
 C        -1.680963        -0.919712        -0.024305
 H        -4.476611        -0.919440         0.859595
 H        -2.226357        -0.516095         3.317859
 H        -0.771989        -1.078831         2.236587
 H        -1.041070         1.764908         2.246063
 H        -3.835510         1.416030         1.401716
 H        -2.563820         1.271771        -1.208071
 H        -2.020949         2.546154         0.051708
 H         0.692893         0.478964         1.187717
 H        -1.970069        -0.665333        -1.090454
 H        -1.030904        -1.856975         0.041963
