19
Iteration:  3327charge 0 multiplicity 1
 O        -3.909919        -1.553995         0.968563
 C        -2.765233        -0.667970         1.152118
 C        -1.936237        -0.465590         2.535888
 C        -1.407773         0.756198         1.848394
 C        -2.687170         1.029793         1.144266
 C        -1.971455         1.424196        -0.150026
 C        -0.928454         0.425597         0.425155
 O         0.397349         0.797567        -0.136559
 C        -1.599355        -0.894227         0.164901
 H        -4.444120        -1.166119         0.299504
 H        -2.655479        -0.203503         3.295901
 H        -1.391072        -1.398067         2.804282
 H        -0.828094         1.524482         2.264844
 H        -3.510608         1.518825         1.686247
 H        -2.463900         1.079337        -1.103300
 H        -1.708750         2.472077        -0.141724
 H         1.030178         0.200635         0.250253
 H        -1.909859        -0.887193        -0.859484
 H        -1.120186        -1.813895         0.413448
