19
Iteration:  2378
 O        -3.833371        -1.519331         1.186670
 C        -2.668552        -0.714236         1.115941
 C        -1.884576        -0.523988         2.525269
 C        -1.487210         0.842557         1.828893
 C        -2.826465         0.977143         0.955941
 C        -2.021826         1.551561        -0.145640
 C        -0.926013         0.596974         0.423469
 O         0.416827         0.505756        -0.104808
 C        -1.643434        -0.820425         0.085215
 H        -3.944350        -1.775346         0.213578
 H        -2.558932        -0.343655         3.359212
 H        -1.152339        -1.235882         2.821543
 H        -1.310702         1.673474         2.413619
 H        -3.661305         1.419739         1.392786
 H        -2.361465         1.478947        -1.176159
 H        -1.805782         2.608111        -0.007008
 H         1.008416         0.283976         0.637080
 H        -1.897098        -0.682727        -0.932731
 H        -0.907428        -1.612011         0.173443
