19
Iteration:  2350
 O        -3.866249        -1.349757         0.990900
 C        -2.681476        -0.610161         1.132613
 C        -1.896698        -0.510680         2.544172
 C        -1.445806         0.775271         1.891156
 C        -2.791700         1.019558         1.119258
 C        -2.138061         1.308584        -0.162583
 C        -0.964383         0.460653         0.293180
 O         0.381276         0.719742        -0.092457
 C        -1.486960        -0.927996         0.213586
 H        -4.087758        -1.338711         0.018396
 H        -2.462081        -0.442392         3.503386
 H        -1.028772        -1.254980         2.685510
 H        -0.868918         1.580840         2.504425
 H        -3.700868         1.486786         1.636624
 H        -2.703392         1.017093        -1.091069
 H        -1.764040         2.373725        -0.176818
 H         0.824792        -0.126741         0.011415
 H        -1.536787        -1.208753        -0.894005
 H        -0.808398        -1.661461         0.721787
