19
Iteration:  3528charge 0 multiplicity 1
 O        -3.866105        -1.539769         1.174013
 C        -2.712818        -0.728690         1.138779
 C        -1.963096        -0.510642         2.475010
 C        -1.455568         0.789899         1.838402
 C        -2.709321         1.044620         1.023623
 C        -1.991659         1.452105        -0.265117
 C        -0.909459         0.485474         0.303874
 O         0.440051         0.690433         0.053308
 C        -1.668637        -0.890969         0.080633
 H        -4.498581        -0.941585         0.748957
 H        -2.587974        -0.184641         3.355382
 H        -1.231852        -1.338329         2.541948
 H        -0.923303         1.635456         2.384617
 H        -3.692185         1.402474         1.457498
 H        -2.460155         1.281089        -1.225722
 H        -1.645476         2.512723        -0.352206
 H         1.121052         0.708659         0.704335
 H        -2.049470        -0.893904        -0.953977
 H        -1.038303        -1.783355         0.235959
