19
Iteration:  1654
 O        -4.103453        -1.191362         1.069876
 C        -2.696516        -0.690100         1.188402
 C        -1.977476        -0.564807         2.541770
 C        -1.372094         0.762611         1.946929
 C        -2.697647         0.908285         1.075872
 C        -2.076133         1.230877        -0.227609
 C        -0.843875         0.410094         0.342305
 O         0.377705         0.940417        -0.179545
 C        -1.354723        -1.042600         0.221005
 H        -4.043874        -2.130876         0.896814
 H        -2.771588        -0.385277         3.311953
 H        -1.335431        -1.446420         2.787057
 H        -0.930424         1.561178         2.546998
 H        -3.614072         1.298749         1.486868
 H        -2.496980         0.808559        -1.182508
 H        -1.645292         2.228770        -0.378878
 H         0.228542         1.638695        -0.854259
 H        -1.678595        -1.326604        -0.837881
 H        -0.633619        -1.870058         0.589551
