19
Iteration:  4139
 O        -3.911629        -1.509493         1.041740
 C        -2.844169        -0.611321         1.090391
 C        -1.975392        -0.593391         2.485323
 C        -1.312537         0.720448         1.871614
 C        -2.738188         0.959166         1.181391
 C        -1.983359         1.548522        -0.115423
 C        -0.889578         0.542313         0.321843
 O         0.418114         0.686989         0.001791
 C        -1.599334        -0.814757         0.044979
 H        -3.933630        -1.959645         0.211311
 H        -2.565373        -0.413177         3.445299
 H        -1.364021        -1.480857         2.628921
 H        -0.845772         1.546217         2.487740
 H        -3.581772         1.554644         1.602762
 H        -2.375391         1.624832        -1.114636
 H        -1.571116         2.565025         0.110409
 H         0.746996        -0.077494        -0.420061
 H        -2.071867        -0.896883        -0.901045
 H        -1.183770        -1.791022         0.368384
