19
Iteration:  3002charge 0 multiplicity 1
 O        -3.850374        -1.320435         0.912514
 C        -2.661159        -0.617311         1.131256
 C        -1.883971        -0.536339         2.509607
 C        -1.454363         0.768635         1.923462
 C        -2.808769         0.917490         1.146074
 C        -2.144150         1.430874        -0.069796
 C        -0.934561         0.619206         0.415694
 O         0.344667         0.489200        -0.200486
 C        -1.444406        -0.875675         0.277726
 H        -3.796354        -1.719066         0.048855
 H        -2.647188        -0.364403         3.270614
 H        -1.209771        -1.400349         2.739679
 H        -1.053676         1.514355         2.660241
 H        -3.812523         0.961459         1.678681
 H        -2.521422         1.265788        -1.139146
 H        -1.882613         2.583881        -0.063923
 H         0.554326         1.186712        -0.838042
 H        -1.582619        -1.141448        -0.796186
 H        -0.733559        -1.551209         0.711620
