19
Iteration:  1138charge 0 multiplicity 1
 O        -3.783495        -1.445869         0.808515
 C        -2.735590        -0.598258         1.247543
 C        -2.060461        -0.618322         2.570220
 C        -1.355188         0.644437         2.029903
 C        -2.694323         0.986262         1.280676
 C        -2.010707         1.512901         0.037431
 C        -0.893168         0.546629         0.270541
 O         0.232718         0.678199        -0.497412
 C        -1.560021        -0.880609         0.352898
 H        -3.524482        -1.672715        -0.159673
 H        -2.619550        -0.290813         3.484002
 H        -1.544343        -1.579601         2.857078
 H        -0.850828         1.300068         2.603452
 H        -3.561302         1.372654         1.828551
 H        -2.294898         1.343039        -1.047415
 H        -1.762371         2.637110         0.123226
 H         0.650029         1.546850        -0.481128
 H        -1.854313        -1.271636        -0.666551
 H        -0.869143        -1.701686         0.670792
