19
Iteration:  1074charge 0 multiplicity 1
 O        -3.856573        -1.508187         1.247128
 C        -2.723758        -0.619543         1.164406
 C        -1.658073        -0.696656         2.291449
 C        -1.410567         0.733158         1.758534
 C        -2.830229         0.999006         1.161820
 C        -2.103358         1.526973        -0.232342
 C        -1.017750         0.566240         0.272099
 O         0.435070         0.577915         0.249061
 C        -1.690027        -0.776711        -0.066123
 H        -4.499994        -1.085912         0.657494
 H        -1.797677        -0.880675         3.358258
 H        -0.853447        -1.448053         2.091643
 H        -0.861428         1.462109         2.258096
 H        -3.570534         1.588861         1.647988
 H        -2.496309         1.361598        -1.207575
 H        -1.989555         2.633884        -0.245201
 H         0.714905         1.527860         0.139639
 H        -2.223672        -0.769895        -1.060959
 H        -1.224281        -1.786894        -0.086726
