19
Iteration:  1825
 O        -3.669800        -1.398479         0.652858
 C        -2.696133        -0.600385         1.203775
 C        -1.936474        -0.515107         2.579019
 C        -1.438293         0.834271         2.034354
 C        -2.757940         0.992750         1.291777
 C        -2.112822         1.422698        -0.027411
 C        -0.928537         0.469693         0.374239
 O         0.239791         0.494567        -0.378607
 C        -1.481562        -0.891004         0.311225
 H        -4.482487        -1.359426         1.192168
 H        -2.689119        -0.308285         3.334841
 H        -1.239806        -1.319324         2.840595
 H        -0.989142         1.706187         2.628745
 H        -3.747232         1.452468         1.642775
 H        -2.537886         1.161976        -1.002626
 H        -1.852773         2.538652        -0.049156
 H         0.492912         1.443007        -0.558875
 H        -1.663515        -1.210056        -0.716505
 H        -0.935065        -1.687766         0.750271
