19
Iteration:  2919
 O        -3.850139        -1.540613         1.295370
 C        -2.734415        -0.709257         0.980410
 C        -1.848281        -0.558596         2.357965
 C        -1.534499         0.851508         1.829981
 C        -2.860469         0.963716         1.024680
 C        -2.015439         1.675399        -0.132288
 C        -0.969999         0.595276         0.319568
 O         0.446145         0.481533        -0.024023
 C        -1.501703        -0.862223         0.095227
 H        -4.585559        -1.375224         0.655520
 H        -2.522229        -0.506937         3.226993
 H        -1.092829        -1.272091         2.653029
 H        -1.080127         1.603401         2.437237
 H        -3.781091         1.362873         1.287494
 H        -2.274193         1.641127        -1.155540
 H        -1.971582         2.622022         0.294460
 H         1.015634         0.630297         0.752112
 H        -1.694586        -1.098250        -0.971252
 H        -0.723448        -1.621237         0.443764
