19
Iteration:  2146
 O        -3.792797        -1.391148         0.809164
 C        -2.694593        -0.630089         1.205334
 C        -1.940993        -0.397911         2.628231
 C        -1.364080         0.740718         1.817481
 C        -2.735008         0.991425         1.177675
 C        -2.226661         1.259893        -0.214887
 C        -0.918855         0.373240         0.288660
 O         0.405160         0.859309        -0.145975
 C        -1.567950        -1.016429         0.313929
 H        -4.529862        -0.963745         1.321419
 H        -2.594464        -0.124933         3.465474
 H        -1.395983        -1.333767         2.752089
 H        -0.646216         1.496657         2.349905
 H        -3.646161         1.559043         1.639846
 H        -2.809853         0.928022        -1.122349
 H        -1.815102         2.226026        -0.503187
 H         0.994195         0.436991         0.477481
 H        -1.828344        -1.281384        -0.681815
 H        -0.896450        -1.759597         0.750075
