19
Iteration:  4708charge 0 multiplicity 1
 O        -3.863559        -1.335400         0.981603
 C        -2.627308        -0.685836         1.114475
 C        -1.943809        -0.527613         2.513246
 C        -1.492549         0.872033         1.910647
 C        -2.789083         0.998275         1.090898
 C        -2.018405         1.421393        -0.106800
 C        -0.898707         0.471794         0.424980
 O         0.394944         0.577986        -0.055330
 C        -1.545019        -0.970536         0.182777
 H        -3.898020        -1.395804        -0.024766
 H        -2.675612        -0.381937         3.334317
 H        -1.226524        -1.264639         2.824278
 H        -1.041971         1.640687         2.509755
 H        -3.683631         1.423086         1.581499
 H        -2.363616         1.276421        -1.164162
 H        -1.914604         2.580281        -0.058807
 H         0.276062         0.562688        -1.070651
 H        -2.038525        -0.843815        -0.857887
 H        -0.904340        -1.915274         0.226493
