19
Iteration:  3847
 O        -3.728608        -1.648532         0.996350
 C        -2.820546        -0.602320         1.134614
 C        -1.979268        -0.513454         2.411247
 C        -1.403496         0.837003         1.844965
 C        -2.853474         1.078955         1.042307
 C        -1.898328         1.594289        -0.076828
 C        -0.956356         0.471305         0.415905
 O         0.388982         0.518446        -0.058095
 C        -1.657415        -0.762086         0.127622
 H        -4.244260        -1.560776         1.788136
 H        -2.618265        -0.341175         3.268128
 H        -1.240532        -1.339840         2.512917
 H        -0.868985         1.530248         2.431071
 H        -3.722654         1.613021         1.463388
 H        -2.130634         1.609577        -1.178464
 H        -1.513703         2.630088         0.030664
 H         0.699954        -0.357499         0.111596
 H        -1.990427        -0.953386        -0.878884
 H        -0.862018        -1.479191         0.306693
