19
Iteration:  4864charge 0 multiplicity 1
 O        -3.991981        -1.423937         1.088410
 C        -2.777939        -0.650530         1.126285
 C        -2.033529        -0.522505         2.456921
 C        -1.424586         0.740304         1.823619
 C        -2.790397         0.915791         1.134854
 C        -2.051075         1.440972        -0.121424
 C        -0.839234         0.531447         0.327620
 O         0.567415         0.721789        -0.078598
 C        -1.506902        -0.858930         0.213414
 H        -4.125809        -1.848612         0.232218
 H        -2.663797        -0.215999         3.256126
 H        -1.412368        -1.289874         2.922527
 H        -1.017863         1.577984         2.477410
 H        -3.621936         1.371912         1.637666
 H        -2.429922         1.237217        -1.176428
 H        -1.584802         2.424020        -0.064810
 H         0.695760         0.064277        -0.750952
 H        -1.860278        -0.965268        -0.858120
 H        -0.852719        -1.754261         0.311419
