19
Iteration:  1352
 O        -3.882343        -1.391721         1.064916
 C        -2.687726        -0.652840         1.197363
 C        -1.837501        -0.547664         2.426971
 C        -1.418746         0.742767         1.783188
 C        -2.765948         0.896933         1.121393
 C        -2.091468         1.392781        -0.199206
 C        -0.927859         0.521300         0.309186
 O         0.432425         0.764524         0.092806
 C        -1.589820        -0.976648         0.076171
 H        -4.569427        -0.951529         1.636844
 H        -2.290693        -0.305951         3.403073
 H        -1.059741        -1.327698         2.465447
 H        -1.036232         1.666117         2.274656
 H        -3.621764         1.390339         1.618754
 H        -2.582400         1.092823        -1.146850
 H        -2.030709         2.452711        -0.167684
 H         0.401537         0.931963        -0.856533
 H        -2.001765        -1.097809        -0.940853
 H        -0.926441        -1.818710         0.286418
