19
Iteration:  2068charge 0 multiplicity 1
 O        -3.904060        -1.488880         1.338563
 C        -2.738997        -0.704214         1.110144
 C        -1.879515        -0.495494         2.400070
 C        -1.461204         0.843177         1.706297
 C        -2.810139         0.943752         0.933973
 C        -1.975906         1.535454        -0.264089
 C        -0.906970         0.478382         0.321383
 O         0.398973         0.640259         0.095798
 C        -1.605239        -0.847826         0.021329
 H        -3.538674        -2.426773         1.483110
 H        -2.558208        -0.291558         3.226819
 H        -1.181864        -1.202040         2.828755
 H        -0.948342         1.524598         2.416006
 H        -3.736940         1.457770         1.283489
 H        -2.305033         1.393083        -1.315452
 H        -1.764616         2.576313         0.010145
 H         0.829998         0.495484         0.936205
 H        -2.047252        -0.839086        -0.970904
 H        -0.889150        -1.628392         0.074624
