19
Iteration:  1532charge 0 multiplicity 1
 O        -3.797654        -1.586538         1.079741
 C        -2.738760        -0.615083         1.194990
 C        -1.960551        -0.458948         2.509960
 C        -1.429130         0.795982         1.846122
 C        -2.773623         0.976049         1.043282
 C        -2.014400         1.423496        -0.220356
 C        -0.948705         0.523302         0.340442
 O         0.377313         0.744754        -0.167810
 C        -1.568406        -0.932535         0.197970
 H        -4.650925        -1.208341         1.252767
 H        -2.620762        -0.197781         3.355417
 H        -1.168009        -1.170170         2.798053
 H        -0.882327         1.654834         2.392183
 H        -3.672838         1.543837         1.495851
 H        -2.313979         1.148482        -1.222417
 H        -1.687725         2.474894        -0.060228
 H         1.014060         0.119195         0.267560
 H        -1.945874        -1.240724        -0.822772
 H        -0.894299        -1.685185         0.666821
