19
Iteration:  3732charge 0 multiplicity 1
 O        -3.818591        -1.469843         1.076992
 C        -2.643061        -0.697951         1.111625
 C        -1.995089        -0.597174         2.530642
 C        -1.454322         0.822374         1.864243
 C        -2.774690         0.949393         1.033011
 C        -1.966029         1.564164        -0.072744
 C        -0.989612         0.548801         0.305310
 O         0.383227         0.538140        -0.096259
 C        -1.555105        -0.832053         0.046542
 H        -4.564898        -0.902904         1.224390
 H        -2.845977        -0.418494         3.182840
 H        -1.219606        -1.207335         2.955938
 H        -1.063292         1.636978         2.614754
 H        -3.702665         1.362808         1.484818
 H        -2.284713         1.460722        -1.102648
 H        -1.698879         2.590716         0.072336
 H         0.985255         0.274655         0.570078
 H        -2.096784        -0.873163        -0.945245
 H        -0.755971        -1.597314         0.091372
