19
Iteration:   228charge 0 multiplicity 1
 O        -3.760722        -1.573007         1.380253
 C        -2.679649        -0.693543         1.107284
 C        -1.756848        -0.601630         2.300147
 C        -1.472473         0.799071         1.748113
 C        -2.799028         0.990036         1.050505
 C        -1.994960         1.696080        -0.229185
 C        -1.000716         0.522758         0.308870
 O         0.416959         0.525308         0.227178
 C        -1.820876        -0.804012        -0.091551
 H        -4.186997        -1.993333         0.542125
 H        -2.364752        -0.536937         3.217857
 H        -0.858514        -1.268399         2.446011
 H        -0.926680         1.409924         2.415611
 H        -3.628061         1.410754         1.501843
 H        -2.412081         1.523734        -1.325916
 H        -1.860023         2.753456        -0.037198
 H         0.761569         1.446199         0.158443
 H        -2.363365        -0.734008        -1.076596
 H        -1.115240        -1.645277        -0.200430
