19
Iteration:  1408
 O        -3.616450        -1.720240         1.188934
 C        -2.660972        -0.665461         1.124738
 C        -1.912548        -0.385270         2.495248
 C        -1.521046         0.868384         1.795528
 C        -2.879800         1.014293         0.990634
 C        -1.958467         1.664513        -0.167776
 C        -0.996373         0.555130         0.290474
 O         0.424046         0.397712         0.090073
 C        -1.759208        -0.708244        -0.052143
 H        -3.612597        -1.964837         2.087380
 H        -2.666927        -0.232550         3.258177
 H        -1.140138        -1.019654         2.955824
 H        -1.080402         1.733670         2.124709
 H        -3.873699         1.348893         1.272091
 H        -2.408772         1.829529        -1.127610
 H        -1.659477         2.573905         0.250629
 H         0.552944        -0.539354        -0.245742
 H        -2.276395        -0.549023        -0.986491
 H        -1.238645        -1.630508        -0.100533
