19
Iteration:  4404
 O        -3.997634        -1.404570         0.926974
 C        -2.754460        -0.739811         1.200982
 C        -2.004925        -0.527495         2.498935
 C        -1.343763         0.744401         1.826525
 C        -2.709545         1.012490         1.134934
 C        -2.066375         1.431310        -0.172149
 C        -0.890093         0.460381         0.361294
 O         0.428770         0.744680        -0.085461
 C        -1.553470        -0.830630         0.264449
 H        -3.856041        -1.713257         0.051513
 H        -2.432832        -0.202694         3.470175
 H        -1.360286        -1.334957         2.945412
 H        -0.739604         1.334077         2.466900
 H        -3.512433         1.707675         1.476125
 H        -2.543015         1.016033        -1.132972
 H        -1.758747         2.488579        -0.303415
 H         0.913052        -0.078270        -0.032334
 H        -1.655885        -1.142306        -0.771851
 H        -0.841343        -1.597253         0.657718
