19
Iteration:  1724
 O        -3.833666        -1.524805         1.157588
 C        -2.654638        -0.634921         1.152729
 C        -1.754358        -0.473485         2.419423
 C        -1.512223         0.917165         1.801773
 C        -2.889211         0.901635         1.028785
 C        -2.066551         1.589797        -0.168409
 C        -0.962520         0.609586         0.381560
 O         0.439849         0.335955         0.033387
 C        -1.654247        -0.771644         0.029288
 H        -3.505240        -2.396025         0.882721
 H        -2.395813        -0.400141         3.308913
 H        -0.961285        -1.248567         2.475863
 H        -1.060104         1.773839         2.374396
 H        -3.885485         1.215614         1.483902
 H        -2.520675         1.611414        -1.202954
 H        -1.978848         2.660551         0.172903
 H         0.907087         1.125621         0.306517
 H        -2.108585        -0.743059        -0.989993
 H        -1.017717        -1.725807         0.066300
