19
Iteration:   292
 O        -3.819201        -1.396921         0.834830
 C        -2.697889        -0.631964         1.251394
 C        -2.041620        -0.615793         2.615098
 C        -1.312309         0.690999         1.920500
 C        -2.703203         0.971732         1.285841
 C        -2.033320         1.382534        -0.051105
 C        -0.910315         0.453348         0.317011
 O         0.231191         0.741828        -0.422603
 C        -1.483250        -0.876223         0.315198
 H        -3.946735        -1.065799        -0.096198
 H        -2.695448        -0.173770         3.379548
 H        -1.448666        -1.539198         2.915905
 H        -0.776951         1.446976         2.465877
 H        -3.493524         1.339747         1.793094
 H        -2.676704         1.222631        -1.000154
 H        -1.728479         2.395166         0.058776
 H         0.245058         1.666450        -0.173039
 H        -1.902153        -1.114145        -0.743024
 H        -0.736499        -1.679212         0.618315
