19
Iteration:  1893
 O        -3.910779        -1.311227         1.369161
 C        -2.685384        -0.667456         1.097008
 C        -1.759909        -0.686501         2.380286
 C        -1.472077         0.725527         1.796828
 C        -2.799983         0.898386         0.991316
 C        -2.019420         1.418126        -0.270218
 C        -0.983668         0.575655         0.282535
 O         0.429136         0.659627         0.154133
 C        -1.639851        -0.836620        -0.027097
 H        -4.144367        -1.913795         0.654570
 H        -2.312498        -0.805166         3.312252
 H        -0.889079        -1.307207         2.291288
 H        -1.283237         1.606052         2.376177
 H        -3.684261         1.352724         1.346916
 H        -2.356629         1.329188        -1.299849
 H        -1.834458         2.495225        -0.079507
 H         0.570701         1.501135         0.638414
 H        -1.853828        -0.832249        -1.058261
 H        -0.935195        -1.607891         0.122341
