19
Iteration:  1681charge 0 multiplicity 1
 O        -3.862519        -1.340990         0.897284
 C        -2.742908        -0.614537         1.230503
 C        -2.013960        -0.511791         2.566248
 C        -1.286179         0.737814         1.898960
 C        -2.760863         0.951797         1.140504
 C        -2.115708         1.343923        -0.170802
 C        -0.912474         0.464689         0.349054
 O         0.353983         0.725988        -0.265532
 C        -1.530777        -0.945920         0.312428
 H        -3.574227        -2.241215         0.871567
 H        -2.647556        -0.160171         3.381995
 H        -1.437102        -1.387121         2.897440
 H        -0.879351         1.519427         2.591966
 H        -3.547672         1.562715         1.677562
 H        -2.346765         0.998469        -1.188130
 H        -1.798921         2.399687        -0.274364
 H         0.702435         1.618354        -0.413811
 H        -1.889803        -1.362972        -0.620267
 H        -0.846283        -1.696522         0.707611
