19
Iteration:  3431
 O        -3.762184        -1.614439         1.017382
 C        -2.750467        -0.663667         1.142929
 C        -2.083192        -0.389920         2.521580
 C        -1.328904         0.784429         1.857381
 C        -2.712924         1.044433         1.128656
 C        -1.994768         1.562338        -0.122548
 C        -0.924083         0.434366         0.402537
 O         0.338200         0.601924        -0.150709
 C        -1.646636        -0.799794         0.123421
 H        -3.932218        -1.953829         0.122896
 H        -2.939757        -0.141533         3.251983
 H        -1.412456        -1.111535         3.108372
 H        -0.782861         1.566936         2.477853
 H        -3.717999         1.455659         1.484518
 H        -2.431883         1.549362        -1.113695
 H        -1.592514         2.588635         0.009959
 H         0.927882        -0.087754         0.109884
 H        -1.815708        -1.192604        -0.938305
 H        -0.979166        -1.621481         0.641512
