19
Iteration:  2873charge 0 multiplicity 1
 O        -3.823256        -1.559803         1.080326
 C        -2.705339        -0.627241         1.239548
 C        -1.933772        -0.532147         2.530542
 C        -1.318817         0.748916         1.861043
 C        -2.702272         1.044023         1.086059
 C        -2.094824         1.464038        -0.230100
 C        -0.940420         0.499295         0.286479
 O         0.417349         0.614314         0.050481
 C        -1.723308        -0.814804         0.001593
 H        -3.861683        -1.570442         0.068999
 H        -2.652193        -0.321572         3.321519
 H        -1.292561        -1.343848         2.907325
 H        -0.709669         1.526124         2.396746
 H        -3.630478         1.558327         1.458539
 H        -2.616466         1.086736        -1.065864
 H        -1.697822         2.445056        -0.351132
 H         0.756504         1.510295         0.321174
 H        -2.299928        -0.885680        -0.913829
 H        -1.224135        -1.751764         0.140886
