19
Iteration:  4712charge 0 multiplicity 1
 O        -3.885049        -1.337132         0.945789
 C        -2.625962        -0.711359         1.142523
 C        -1.951790        -0.532501         2.534847
 C        -1.464283         0.842496         1.883922
 C        -2.772962         0.982558         1.100139
 C        -2.039537         1.440139        -0.121686
 C        -0.898921         0.535478         0.432824
 O         0.401162         0.573811        -0.067189
 C        -1.557806        -0.972093         0.209660
 H        -3.900007        -1.358459        -0.005483
 H        -2.751555        -0.393832         3.245154
 H        -1.098750        -1.149566         2.916899
 H        -0.907665         1.636207         2.476919
 H        -3.639897         1.458705         1.496894
 H        -2.389293         1.135654        -1.112926
 H        -1.916192         2.471137        -0.042442
 H         0.224936         0.561990        -0.994208
 H        -1.943653        -0.780550        -0.791244
 H        -0.949411        -1.867888         0.247554
