19
Iteration:  3543charge 0 multiplicity 1
 O        -3.837568        -1.547151         1.207441
 C        -2.740046        -0.595888         1.104754
 C        -1.927679        -0.483491         2.396373
 C        -1.477140         0.826477         1.798684
 C        -2.867323         0.963886         1.012607
 C        -1.899570         1.466901        -0.143069
 C        -0.942441         0.476916         0.415015
 O         0.425762         0.589807        -0.054614
 C        -1.563002        -0.855083         0.061707
 H        -4.768395        -1.293453         0.895548
 H        -2.678655        -0.495153         3.142601
 H        -1.169269        -1.183650         2.746227
 H        -1.085579         1.667315         2.292893
 H        -3.664102         1.664301         1.339496
 H        -2.128712         1.408288        -1.233966
 H        -1.635348         2.461088         0.123461
 H         0.811500         0.720955         0.873248
 H        -1.901841        -0.931735        -1.025848
 H        -0.932863        -1.786703         0.319448
