19
Iteration:  4774charge 0 multiplicity 1
 O        -3.927932        -1.403741         1.181593
 C        -2.724394        -0.626364         1.133852
 C        -1.941913        -0.569856         2.470862
 C        -1.417117         0.758249         1.839334
 C        -2.759296         0.952828         1.036107
 C        -1.934369         1.413846        -0.191586
 C        -0.925712         0.532120         0.353078
 O         0.380584         0.700773         0.104032
 C        -1.544606        -0.925480         0.011685
 H        -4.441424        -1.583066         0.405612
 H        -2.706808        -0.395991         3.230976
 H        -1.223552        -1.299074         2.774204
 H        -0.912405         1.540985         2.427167
 H        -3.562703         1.539430         1.406697
 H        -2.160106         1.204018        -1.268605
 H        -1.733112         2.514422        -0.066951
 H         0.727477         0.529875        -0.748985
 H        -2.014832        -0.801903        -0.986617
 H        -0.997566        -1.904935         0.105136
