19
Iteration:   854charge 0 multiplicity 1
 O        -3.763193        -1.537264         1.031171
 C        -2.742384        -0.639346         1.171091
 C        -1.837252        -0.480273         2.538705
 C        -1.458489         0.861596         1.892291
 C        -2.792377         0.975172         1.124111
 C        -1.982888         1.469813        -0.166359
 C        -1.002467         0.512388         0.386896
 O         0.333303         0.601965        -0.128299
 C        -1.651114        -0.821001         0.113016
 H        -4.025410        -1.704775         0.079818
 H        -2.422432        -0.413747         3.486890
 H        -1.010314        -1.228380         2.597934
 H        -0.977430         1.647078         2.334637
 H        -3.696736         1.448932         1.663628
 H        -2.419177         1.242094        -1.148763
 H        -1.677586         2.580991        -0.025951
 H         0.829682        -0.204287         0.172778
 H        -1.927494        -0.764117        -0.978890
 H        -0.946253        -1.659471         0.329212
