19
Iteration:  2583
 O        -3.816541        -1.509779         1.206909
 C        -2.734857        -0.632176         1.081330
 C        -1.777746        -0.563733         2.377207
 C        -1.391055         0.875639         1.761595
 C        -2.803083         1.030872         1.166881
 C        -2.170716         1.480297        -0.211138
 C        -0.907184         0.517019         0.359779
 O         0.441323         0.501271         0.138289
 C        -1.653418        -0.822430        -0.059245
 H        -4.479028        -1.346796         0.477403
 H        -2.504008        -0.639446         3.242699
 H        -0.950289        -1.304607         2.459191
 H        -1.018808         1.645404         2.367455
 H        -3.558618         1.332714         1.811791
 H        -2.514767         1.194356        -1.233802
 H        -2.008744         2.555178        -0.358237
 H         0.792092         1.085132         0.872190
 H        -2.131913        -0.690075        -1.056188
 H        -1.111388        -1.810521        -0.141260
