19
Iteration:  4225
 O        -3.879722        -1.376119         0.841207
 C        -2.733979        -0.630631         1.117311
 C        -1.969336        -0.533415         2.530290
 C        -1.356993         0.676572         1.848148
 C        -2.732821         0.917813         1.130095
 C        -2.126245         1.510787        -0.078455
 C        -0.834381         0.455199         0.380950
 O         0.461678         0.666492         0.033365
 C        -1.651658        -0.830567         0.078696
 H        -4.124528        -1.915625         1.612902
 H        -2.615815        -0.302791         3.394032
 H        -1.263159        -1.290951         2.869294
 H        -0.951939         1.574389         2.411946
 H        -3.425526         1.630636         1.584642
 H        -2.593707         1.168753        -0.966775
 H        -1.780314         2.561733         0.021119
 H         0.709875         0.405241        -0.850660
 H        -1.983501        -1.003552        -0.882678
 H        -1.166096        -1.740820         0.394858
