19
Iteration:  3129charge 0 multiplicity 1
 O        -3.884562        -1.493021         0.983827
 C        -2.721792        -0.621184         1.120156
 C        -1.983601        -0.551452         2.488529
 C        -1.399842         0.730245         1.801784
 C        -2.738304         1.016723         1.148772
 C        -2.082805         1.452439        -0.146600
 C        -0.900636         0.502931         0.336782
 O         0.461338         0.682870        -0.063035
 C        -1.534405        -0.948995         0.157426
 H        -4.550606        -1.316688         1.719615
 H        -2.667037        -0.295043         3.337044
 H        -1.240378        -1.325330         2.772895
 H        -0.881004         1.585427         2.322882
 H        -3.519112         1.598126         1.770708
 H        -2.538689         1.385764        -1.128538
 H        -1.726720         2.449496         0.022747
 H         0.438031         1.556577        -0.547479
 H        -1.941129        -1.320697        -0.823281
 H        -1.010491        -1.813090         0.602233
