19
Iteration:  3670charge 0 multiplicity 1
 O        -3.891389        -1.355581         1.008844
 C        -2.709200        -0.619865         1.135475
 C        -1.952253        -0.576712         2.508304
 C        -1.470153         0.730674         1.887244
 C        -2.759860         1.007688         1.065854
 C        -2.070183         1.462920        -0.154898
 C        -0.882960         0.475917         0.285510
 O         0.439651         0.688011         0.040839
 C        -1.583271        -0.909678         0.102246
 H        -3.980470        -1.938547         1.755800
 H        -2.746203        -0.520667         3.327564
 H        -1.067366        -1.233399         2.727683
 H        -0.832716         1.561017         2.259379
 H        -3.739120         1.317674         1.445044
 H        -2.433485         1.207750        -1.186583
 H        -1.689467         2.579552        -0.259845
 H         0.843403         0.034773        -0.502681
 H        -1.905282        -0.950975        -0.911975
 H        -0.841445        -1.699522         0.267430
