19
Iteration:  4767
 O        -3.931592        -1.410014         1.154284
 C        -2.676777        -0.616977         1.078487
 C        -1.945095        -0.538295         2.466342
 C        -1.406138         0.735507         1.905251
 C        -2.719213         1.005516         1.039419
 C        -1.944766         1.438296        -0.217353
 C        -0.930404         0.453103         0.343194
 O         0.350451         0.746359         0.092792
 C        -1.599850        -0.957123         0.060389
 H        -4.368062        -1.601244         0.308137
 H        -2.611349        -0.326299         3.293454
 H        -1.272431        -1.368829         2.824002
 H        -0.841738         1.487922         2.540189
 H        -3.612665         1.380388         1.554556
 H        -2.343109         1.236674        -1.221885
 H        -1.609759         2.435400        -0.118102
 H         0.646879         0.478522        -0.775018
 H        -1.858575        -1.006612        -1.046560
 H        -0.917646        -1.813677         0.264885
