19
Iteration:  4365
 O        -3.834032        -1.422068         1.196454
 C        -2.651803        -0.697451         1.144401
 C        -1.948413        -0.600140         2.442314
 C        -1.558273         0.749846         1.860744
 C        -2.785422         1.033218         0.917718
 C        -1.890187         1.515069        -0.170452
 C        -0.923154         0.510764         0.393066
 O         0.387685         0.633602        -0.004274
 C        -1.623500        -0.880708         0.062612
 H        -4.389477        -1.473280         0.359591
 H        -2.711592        -0.421630         3.224110
 H        -1.263714        -1.391501         2.792227
 H        -0.867432         1.484477         2.375945
 H        -3.677971         1.553067         1.194242
 H        -2.261274         1.410505        -1.180130
 H        -1.601526         2.506829         0.177141
 H         1.010957         0.567864         0.746642
 H        -2.300879        -0.893236        -0.882074
 H        -0.976403        -1.777284        -0.010853
