19
Iteration:  4472charge 0 multiplicity 1
 O        -3.837461        -1.511154         1.154870
 C        -2.826657        -0.606814         1.209297
 C        -2.028455        -0.574894         2.483926
 C        -1.392218         0.668264         1.726799
 C        -2.755109         1.027953         0.985853
 C        -2.002689         1.541904        -0.227021
 C        -0.883318         0.532866         0.353411
 O         0.519360         0.661831         0.095843
 C        -1.659430        -0.834015         0.137933
 H        -4.071712        -1.565007         0.209234
 H        -2.493721        -0.530508         3.445342
 H        -1.405631        -1.509766         2.619768
 H        -1.026048         1.523593         2.319124
 H        -3.531005         1.558543         1.417762
 H        -2.572970         1.571933        -1.245791
 H        -1.807033         2.605467        -0.072289
 H         0.815056         0.018654        -0.535210
 H        -1.958750        -0.935582        -0.934320
 H        -1.031737        -1.691033         0.408218
