19
Iteration:  3666
 O        -3.905361        -1.305103         1.009842
 C        -2.679062        -0.645582         1.126826
 C        -1.957421        -0.557370         2.494668
 C        -1.475630         0.727552         1.888914
 C        -2.770817         0.957149         1.073663
 C        -2.060975         1.457874        -0.137471
 C        -0.894323         0.458895         0.288547
 O         0.462768         0.710126         0.033718
 C        -1.549508        -0.917177         0.105790
 H        -3.952983        -1.918544         1.796366
 H        -2.773597        -0.506330         3.205212
 H        -1.194590        -1.296427         2.690538
 H        -0.949092         1.687305         2.286782
 H        -3.734047         1.308464         1.489836
 H        -2.464688         1.295136        -1.141741
 H        -1.807799         2.485452        -0.250134
 H         0.725230        -0.011297        -0.628463
 H        -2.043505        -1.075714        -0.903624
 H        -0.820604        -1.694967         0.340733
