19
Iteration:  1269charge 0 multiplicity 1
 O        -3.813273        -1.503497         0.867314
 C        -2.640584        -0.693224         1.182378
 C        -1.837033        -0.558319         2.489259
 C        -1.428734         0.797748         1.849241
 C        -2.779393         0.929114         1.212372
 C        -2.072455         1.525874        -0.025673
 C        -0.946694         0.543352         0.362519
 O         0.369388         0.610992        -0.143956
 C        -1.637197        -0.782571         0.127229
 H        -4.507366        -1.173149         1.474846
 H        -2.436034        -0.281796         3.369132
 H        -1.021509        -1.244665         2.749634
 H        -1.026441         1.640127         2.279547
 H        -3.580656         1.386944         1.754712
 H        -2.616368         1.452977        -0.990319
 H        -1.763895         2.589414         0.207785
 H         0.595003        -0.296610        -0.433092
 H        -2.207956        -0.743629        -0.822386
 H        -0.973871        -1.677827         0.131576
