19
Iteration:  3790
 O        -3.880216        -1.268338         0.872123
 C        -2.692124        -0.595735         1.110432
 C        -1.958806        -0.558608         2.529282
 C        -1.257631         0.685602         1.858224
 C        -2.687146         0.920027         1.106711
 C        -2.127922         1.352963        -0.232482
 C        -0.939273         0.374941         0.379007
 O         0.311330         0.882856        -0.013904
 C        -1.541493        -1.015639         0.195794
 H        -4.629258        -0.934961         1.451944
 H        -2.671917        -0.279976         3.315561
 H        -1.345369        -1.314916         2.957984
 H        -0.932672         1.396906         2.567641
 H        -3.391192         1.429705         1.772554
 H        -2.626661         0.937767        -1.064187
 H        -1.722117         2.378673        -0.295495
 H         0.983604         0.109517         0.034738
 H        -1.958302        -1.195975        -0.740089
 H        -0.901776        -1.792245         0.563365
