19
Iteration:  4822
 O        -3.792074        -1.521832         1.133970
 C        -2.664809        -0.662470         1.136949
 C        -1.891209        -0.500914         2.381112
 C        -1.454517         0.820484         1.735615
 C        -2.784290         1.090143         1.041887
 C        -1.985241         1.511040        -0.180090
 C        -1.006495         0.439876         0.369619
 O         0.358987         0.506758         0.230819
 C        -1.633790        -0.845356         0.051082
 H        -4.485354        -1.132958         0.538815
 H        -2.478525        -0.295789         3.280834
 H        -1.145917        -1.333943         2.444288
 H        -0.817186         1.671876         2.117235
 H        -3.626890         1.543539         1.628421
 H        -2.482580         1.414005        -1.149384
 H        -1.657722         2.520855        -0.037466
 H         0.579823         0.632917        -0.734546
 H        -1.846462        -0.997560        -1.059588
 H        -0.817111        -1.507891         0.389516
