19
Iteration:  1688charge 0 multiplicity 1
 O        -3.851396        -1.383326         0.867591
 C        -2.657834        -0.607620         1.257282
 C        -1.965079        -0.453174         2.571949
 C        -1.335702         0.777951         1.910991
 C        -2.759286         0.946452         1.149231
 C        -2.122424         1.407589        -0.168357
 C        -0.936431         0.481859         0.337206
 O         0.333692         0.619188        -0.237560
 C        -1.548030        -0.936262         0.276882
 H        -3.526765        -2.320167         0.863100
 H        -2.689587        -0.155405         3.372137
 H        -1.476062        -1.391164         2.904066
 H        -0.857296         1.563477         2.406812
 H        -3.605631         1.362961         1.602139
 H        -2.625520         1.213864        -1.192611
 H        -1.789786         2.458432        -0.118304
 H         0.737779         1.486518        -0.180189
 H        -1.979861        -1.156911        -0.753991
 H        -0.760810        -1.717445         0.656959
