19
Iteration:  1946charge 0 multiplicity 1
 O        -3.724470        -1.576134         1.030382
 C        -2.709888        -0.632717         1.190714
 C        -1.939087        -0.449731         2.487765
 C        -1.418389         0.789700         1.785570
 C        -2.818815         1.001442         1.082664
 C        -2.041624         1.546583        -0.229962
 C        -0.963924         0.519842         0.336567
 O         0.395240         0.581342        -0.046932
 C        -1.623842        -0.869892         0.148956
 H        -4.408829        -1.350171         1.687772
 H        -2.627956        -0.155648         3.284594
 H        -1.286568        -1.260532         2.776692
 H        -0.890505         1.624862         2.260295
 H        -3.706375         1.382137         1.543439
 H        -2.385644         1.257022        -1.210094
 H        -1.882952         2.635134        -0.092529
 H         0.896531         0.005929         0.561754
 H        -1.979815        -0.863159        -0.863154
 H        -1.019738        -1.707150         0.351618
