19
Iteration:  4362charge 0 multiplicity 1
 O        -3.859400        -1.448891         1.207181
 C        -2.649991        -0.683025         1.146248
 C        -1.924889        -0.592963         2.448565
 C        -1.551081         0.737539         1.840368
 C        -2.803702         1.035473         0.914446
 C        -1.869891         1.535849        -0.179763
 C        -0.925770         0.532078         0.417505
 O         0.384011         0.618834         0.001552
 C        -1.617524        -0.888918         0.058316
 H        -4.386840        -1.400269         0.385203
 H        -2.641916        -0.494260         3.248885
 H        -1.250530        -1.392437         2.830795
 H        -0.969181         1.503873         2.337446
 H        -3.700730         1.577597         1.150103
 H        -2.217896         1.397216        -1.259574
 H        -1.630891         2.519134         0.180768
 H         1.015348         0.581815         0.783771
 H        -2.288428        -0.837239        -0.903207
 H        -0.958921        -1.770808        -0.163879
