19
Iteration:  3647charge 0 multiplicity 1
 O        -4.006409        -1.197310         1.010185
 C        -2.723950        -0.709680         1.115410
 C        -1.963454        -0.572790         2.452865
 C        -1.387743         0.789578         1.818811
 C        -2.760636         0.804335         1.057438
 C        -2.079082         1.374053        -0.127098
 C        -0.858537         0.563281         0.400601
 O         0.426630         0.726326        -0.025394
 C        -1.477870        -0.988141         0.163397
 H        -4.142341        -2.079918         1.404320
 H        -2.588325        -0.012615         3.222496
 H        -1.305019        -1.327566         2.953238
 H        -0.937154         1.597014         2.540170
 H        -3.691343         1.153955         1.551832
 H        -2.350891         1.392866        -1.224963
 H        -1.774047         2.480308         0.229616
 H         0.579210         0.491642        -0.991713
 H        -1.448915        -1.020469        -0.902498
 H        -0.805360        -1.740379         0.553445
