19
Iteration:  2900charge 0 multiplicity 1
 O        -3.742260        -1.606317         1.114566
 C        -2.727038        -0.622753         1.186152
 C        -1.829896        -0.430507         2.390558
 C        -1.443943         0.874702         1.784818
 C        -2.859936         0.944154         1.057932
 C        -2.094513         1.564201        -0.147810
 C        -0.956431         0.497085         0.362699
 O         0.405910         0.419030         0.063026
 C        -1.637818        -0.753232         0.027655
 H        -4.396370        -1.263952         0.424190
 H        -2.365218        -0.432241         3.362208
 H        -0.983186        -1.133177         2.454469
 H        -1.093345         1.772087         2.254253
 H        -3.620948         1.478226         1.612135
 H        -2.531306         1.525358        -1.213102
 H        -1.599863         2.574953        -0.044320
 H         0.936416         0.638010         0.873212
 H        -2.090867        -0.841197        -1.001018
 H        -1.028944        -1.701066         0.168126
