19
Iteration:  1485charge 0 multiplicity 1
 O        -4.000258        -1.110821         0.894549
 C        -2.620561        -0.777771         1.174353
 C        -1.778880        -0.439253         2.686554
 C        -1.376035         0.758178         1.853380
 C        -2.692757         0.783232         1.097194
 C        -2.203327         1.121884        -0.240530
 C        -0.942943         0.377278         0.284538
 O         0.268409         0.977580        -0.086191
 C        -1.405560        -1.049849         0.194813
 H        -4.565014        -0.325628         1.082729
 H        -2.552825        -0.058740         3.375880
 H        -1.244356        -1.278083         3.222539
 H        -0.954251         1.658913         2.241450
 H        -3.631227         1.068435         1.580489
 H        -2.642210         0.486206        -0.971046
 H        -1.979746         2.128191        -0.526324
 H         1.129235         0.776713         0.287586
 H        -1.534969        -1.271034        -0.847048
 H        -0.830090        -1.808889         0.677889
