19
Iteration:  4347charge 0 multiplicity 1
 O        -3.933477        -1.551466         1.233954
 C        -2.781052        -0.715993         1.097071
 C        -1.868263        -0.519011         2.445543
 C        -1.471982         0.836376         1.832211
 C        -2.823101         0.901902         0.976652
 C        -1.875060         1.583041        -0.209926
 C        -0.912276         0.526780         0.378746
 O         0.458475         0.547029         0.067911
 C        -1.656320        -0.792095        -0.034848
 H        -4.592047        -1.256455         0.504099
 H        -2.431948        -0.423342         3.406213
 H        -1.024458        -1.182504         2.450950
 H        -1.217198         1.755744         2.393174
 H        -3.735304         1.386683         1.479632
 H        -1.975305         1.493808        -1.288283
 H        -1.569257         2.661174         0.015274
 H         0.978785         0.608478         0.914659
 H        -1.903853        -0.663703        -1.028198
 H        -1.026853        -1.654689         0.173855
