19
Iteration:  1009
 O        -3.857081        -1.620039         1.103216
 C        -2.756876        -0.656529         1.147683
 C        -1.975101        -0.499047         2.475202
 C        -1.367587         0.806062         1.931192
 C        -2.733197         0.990999         1.176960
 C        -1.991105         1.551969        -0.074304
 C        -0.885131         0.519150         0.370939
 O         0.330194         0.647563        -0.305556
 C        -1.598953        -0.894866         0.120360
 H        -4.161433        -1.794340         0.223233
 H        -2.714954        -0.330175         3.280990
 H        -1.352967        -1.337888         2.873247
 H        -0.885032         1.587324         2.549838
 H        -3.481934         1.620467         1.589802
 H        -2.379568         1.589150        -1.095198
 H        -1.715113         2.620700         0.193868
 H         1.019208         1.114456         0.175873
 H        -1.919323        -0.953894        -0.951211
 H        -1.037270        -1.859091         0.288972
