19
Iteration:   381
 O        -3.849608        -1.497194         1.400464
 C        -2.739983        -0.742448         1.103707
 C        -1.745005        -0.678530         2.260531
 C        -1.416278         0.667628         1.703893
 C        -2.736876         1.040860         1.137011
 C        -2.070990         1.639495        -0.198299
 C        -0.948001         0.523228         0.265350
 O         0.434708         0.675079         0.261078
 C        -1.751231        -0.868253        -0.175955
 H        -4.250432        -1.736887         0.537686
 H        -2.329245        -0.383173         3.165701
 H        -1.022884        -1.500709         2.526628
 H        -0.921091         1.521391         2.133476
 H        -3.438557         1.530583         1.703896
 H        -2.320975         1.394481        -1.261041
 H        -1.893064         2.632890        -0.037640
 H         0.483382         1.619627         0.360487
 H        -2.383350        -0.637943        -1.079233
 H        -1.133210        -1.760969        -0.099987
