19
Iteration:  3662charge 0 multiplicity 1
 O        -3.919754        -1.269080         1.015317
 C        -2.651584        -0.668381         1.114080
 C        -1.961526        -0.541667         2.471711
 C        -1.466565         0.760288         1.879800
 C        -2.782234         0.900687         1.087411
 C        -2.044083         1.442343        -0.140055
 C        -0.922737         0.456400         0.312078
 O         0.481646         0.719183         0.018545
 C        -1.524452        -0.918743         0.097082
 H        -3.952745        -1.871499         1.743169
 H        -2.765951        -0.437026         3.209748
 H        -1.311234        -1.420479         2.714351
 H        -1.115031         1.607131         2.348122
 H        -3.679098         1.328372         1.525505
 H        -2.545446         1.288756        -1.120349
 H        -1.844995         2.532756        -0.098710
 H         0.624913         0.067846        -0.652622
 H        -2.066789        -1.180459        -0.836540
 H        -0.842244        -1.757161         0.431158
