19
Iteration:  2330charge 0 multiplicity 1
 O        -3.946884        -1.402107         0.961552
 C        -2.767677        -0.658271         1.221756
 C        -1.991759        -0.515900         2.537973
 C        -1.299115         0.760427         1.814203
 C        -2.674616         0.921178         1.164836
 C        -2.039081         1.339603        -0.265978
 C        -0.870571         0.431962         0.329770
 O         0.330225         0.934646        -0.061240
 C        -1.534710        -1.037594         0.302795
 H        -4.080075        -1.075327         0.084656
 H        -2.627538        -0.081838         3.329275
 H        -1.439722        -1.359920         3.027595
 H        -0.575176         1.519062         2.351961
 H        -3.524396         1.473076         1.766523
 H        -2.527929         0.945879        -1.163113
 H        -1.843323         2.401824        -0.468881
 H         0.648841         0.309865        -0.733110
 H        -1.985947        -1.194403        -0.721015
 H        -0.802223        -1.830147         0.534609
