19
Iteration:  4866charge 0 multiplicity 1
 O        -3.997154        -1.410664         1.087196
 C        -2.768737        -0.651744         1.119179
 C        -2.030328        -0.527035         2.453945
 C        -1.423042         0.724694         1.845761
 C        -2.804821         0.903543         1.147976
 C        -2.044875         1.450884        -0.135992
 C        -0.839470         0.525700         0.309087
 O         0.554672         0.726737        -0.077852
 C        -1.482027        -0.855845         0.220483
 H        -4.158320        -1.910232         0.243951
 H        -2.668959        -0.151028         3.265164
 H        -1.374729        -1.286208         2.921826
 H        -1.027541         1.546279         2.458814
 H        -3.685530         1.443207         1.619386
 H        -2.404769         1.272792        -1.160168
 H        -1.584620         2.418396        -0.092135
 H         0.646629         0.008602        -0.757440
 H        -1.831742        -0.961985        -0.869445
 H        -0.861548        -1.753634         0.374676
