19
Iteration:  3027
 O        -3.854079        -1.523990         1.037878
 C        -2.716699        -0.684291         1.221606
 C        -2.028701        -0.487850         2.596236
 C        -1.517744         0.812849         1.998052
 C        -2.773834         0.994304         1.063441
 C        -1.933513         1.464740        -0.077219
 C        -0.874556         0.517267         0.356465
 O         0.410177         0.593949        -0.266114
 C        -1.593604        -0.856885         0.057411
 H        -3.612179        -2.069336         0.318041
 H        -2.831212        -0.508438         3.347080
 H        -1.285536        -1.249612         2.814614
 H        -1.048252         1.557062         2.608096
 H        -3.580739         1.509235         1.492150
 H        -2.211037         1.542596        -1.127721
 H        -1.655548         2.481078         0.248909
 H         0.664624         1.517382        -0.245515
 H        -1.978053        -0.861728        -0.914565
 H        -0.850249        -1.648706         0.189556
