19
Iteration:  4115charge 0 multiplicity 1
 O        -3.823936        -1.339332         0.842069
 C        -2.774588        -0.616112         1.134554
 C        -1.935658        -0.621804         2.484634
 C        -1.427602         0.661388         1.895308
 C        -2.685455         1.093946         1.254161
 C        -2.032281         1.485925        -0.051815
 C        -0.971487         0.472191         0.392082
 O         0.338026         0.724636        -0.145244
 C        -1.561834        -0.956199         0.206975
 H        -3.541824        -1.990799         0.141208
 H        -2.623925        -0.290003         3.305153
 H        -1.304054        -1.445671         2.915629
 H        -0.883899         1.440763         2.551505
 H        -3.566271         1.679791         1.529430
 H        -2.557392         1.240283        -0.982368
 H        -1.544929         2.522399        -0.133336
 H         0.765288        -0.161445        -0.287258
 H        -2.094428        -0.978025        -0.700999
 H        -0.962713        -1.883963         0.390717
