19
Iteration:  2779
 O        -3.824220        -1.467645         0.898461
 C        -2.769469        -0.609262         1.178870
 C        -1.900130        -0.596952         2.518520
 C        -1.347673         0.689934         1.751466
 C        -2.705088         1.064445         1.208931
 C        -2.135239         1.578600        -0.145276
 C        -0.990601         0.523338         0.261742
 O         0.357894         0.606602        -0.026575
 C        -1.620161        -0.896377         0.175264
 H        -3.482465        -2.332953         1.097374
 H        -2.540709        -0.388150         3.407139
 H        -1.273569        -1.453609         2.800620
 H        -0.742056         1.410859         2.227211
 H        -3.272661         1.601675         1.870621
 H        -2.739843         1.147316        -0.991816
 H        -1.654600         2.576549        -0.271466
 H         0.788843         1.333474         0.452611
 H        -1.961931        -1.102243        -0.852943
 H        -0.799226        -1.542251         0.577347
