19
Iteration:  2362charge 0 multiplicity 1
 O        -3.813197        -1.371079         1.062994
 C        -2.692499        -0.603184         1.153889
 C        -1.900515        -0.515999         2.429176
 C        -1.516934         0.884425         1.927698
 C        -2.812299         0.866408         1.155542
 C        -2.086332         1.430465        -0.193176
 C        -0.926475         0.529785         0.320988
 O         0.391132         0.581757        -0.112557
 C        -1.502131        -0.864422         0.185495
 H        -4.056078        -1.539466         0.120767
 H        -2.590605        -0.531734         3.302899
 H        -1.063302        -1.287783         2.566309
 H        -0.887116         1.716962         2.467141
 H        -3.855783         1.246109         1.495654
 H        -2.462884         1.209302        -1.228914
 H        -1.922580         2.532900        -0.139651
 H         0.861871        -0.097879         0.449124
 H        -1.959588        -1.134546        -0.834038
 H        -0.816221        -1.688890         0.511918
