19
Iteration:  1663charge 0 multiplicity 1
 O        -4.062285        -1.256220         1.015208
 C        -2.713949        -0.619544         1.207783
 C        -2.002127        -0.577859         2.557412
 C        -1.430638         0.689403         1.895789
 C        -2.661063         0.941739         1.131369
 C        -2.024256         1.220350        -0.215207
 C        -0.819700         0.392993         0.370258
 O         0.378183         0.909272        -0.264664
 C        -1.412024        -0.955031         0.284115
 H        -3.851480        -2.170250         0.875313
 H        -2.667807        -0.310619         3.399803
 H        -1.479048        -1.509827         2.840907
 H        -0.827545         1.524545         2.411579
 H        -3.610090         1.472829         1.472965
 H        -2.639421         0.852962        -1.024819
 H        -1.829433         2.281674        -0.468341
 H         0.177877         1.788844        -0.680841
 H        -1.504348        -1.265891        -0.766908
 H        -0.811387        -1.689440         0.822786
