19
Iteration:  2001charge 0 multiplicity 1
 O        -3.914932        -1.245286         0.926333
 C        -2.638878        -0.655237         1.267524
 C        -2.069536        -0.485276         2.625487
 C        -1.498309         0.780323         2.016948
 C        -2.718155         0.838833         1.066623
 C        -2.033435         1.357133        -0.201424
 C        -0.893100         0.477558         0.295876
 O         0.333584         0.776114        -0.361488
 C        -1.348998        -0.963394         0.372511
 H        -3.963165        -2.129340         0.622936
 H        -2.910675        -0.243896         3.257478
 H        -1.624485        -1.295413         3.133383
 H        -1.127095         1.676833         2.481687
 H        -3.681397         1.186682         1.298943
 H        -2.476656         1.252642        -1.185379
 H        -1.884600         2.466706        -0.071341
 H         0.811762        -0.082580        -0.565877
 H        -1.528425        -1.442438        -0.583457
 H        -0.660628        -1.547277         0.915208
