19
Iteration:   898
 O        -3.760341        -1.768064         1.416726
 C        -2.766293        -0.657894         1.029848
 C        -1.971024        -0.441045         2.349167
 C        -1.442094         0.795851         1.765195
 C        -2.796112         1.070492         1.121474
 C        -1.997671         1.680372        -0.100317
 C        -0.901467         0.521286         0.323916
 O         0.486198         0.597560         0.074203
 C        -1.700735        -0.802259        -0.161704
 H        -4.383087        -1.970529         0.657414
 H        -2.684013        -0.186812         3.197039
 H        -1.277431        -1.274128         2.679882
 H        -1.021745         1.566470         2.267242
 H        -3.700244         1.591682         1.598119
 H        -2.368760         1.611130        -1.136988
 H        -1.538214         2.730636         0.121761
 H         0.804047        -0.267961        -0.303455
 H        -2.134029        -0.802698        -1.232503
 H        -1.149898        -1.757191         0.052969
