19
Iteration:  4160charge 0 multiplicity 1
 O        -3.922801        -1.440392         1.214715
 C        -2.643479        -0.794449         1.093244
 C        -1.926397        -0.599506         2.374936
 C        -1.500102         0.729260         1.830354
 C        -2.842674         0.941094         1.018142
 C        -1.950718         1.594277        -0.074341
 C        -0.879675         0.536978         0.406628
 O         0.501078         0.642765         0.066178
 C        -1.648618        -0.742100        -0.054736
 H        -4.359505        -1.221605         0.315077
 H        -2.677918        -0.573637         3.205596
 H        -1.170717        -1.346656         2.677404
 H        -0.936964         1.481755         2.472264
 H        -3.701547         1.326364         1.608943
 H        -2.365878         1.498883        -1.071915
 H        -1.817606         2.695108         0.182679
 H         0.781577        -0.183968        -0.451515
 H        -2.112220        -0.778942        -0.986163
 H        -0.939388        -1.602612         0.105695
