19
Iteration:  2903charge 0 multiplicity 1
 O        -3.779478        -1.617396         1.138814
 C        -2.696775        -0.605452         1.170926
 C        -1.835891        -0.437061         2.370799
 C        -1.453427         0.876143         1.787431
 C        -2.856071         0.940402         1.026988
 C        -2.098055         1.560715        -0.114177
 C        -0.943564         0.526009         0.365126
 O         0.402671         0.409781         0.053166
 C        -1.610584        -0.768573         0.029450
 H        -4.403703        -1.299295         0.513356
 H        -2.395263        -0.451796         3.312629
 H        -0.966959        -1.155245         2.371141
 H        -1.072333         1.839538         2.250214
 H        -3.742926         1.470805         1.580702
 H        -2.558558         1.638037        -1.161740
 H        -1.573174         2.578240         0.001260
 H         0.888116         0.587483         0.852182
 H        -1.956532        -0.870275        -1.007196
 H        -1.007966        -1.618636         0.252601
