19
Iteration:  4536charge 0 multiplicity 1
 O        -3.924358        -1.438604         1.119541
 C        -2.766416        -0.563771         1.139348
 C        -1.933117        -0.565593         2.434725
 C        -1.394676         0.794584         1.814476
 C        -2.798412         0.896854         1.052377
 C        -2.033045         1.450005        -0.144142
 C        -0.896966         0.575203         0.270646
 O         0.566868         0.592602         0.101740
 C        -1.639415        -0.899336         0.134804
 H        -4.268564        -1.300184         0.247346
 H        -2.600442        -0.378564         3.318085
 H        -1.160982        -1.449027         2.507960
 H        -1.152039         1.698673         2.362059
 H        -3.607671         1.439375         1.493269
 H        -2.576303         1.393077        -1.147920
 H        -1.958977         2.507523        -0.005347
 H         0.618126         0.689428        -0.830028
 H        -1.763535        -1.180355        -0.869529
 H        -1.010691        -1.624182         0.641407
