19
Iteration:  1572
 O        -3.557737        -1.701622         1.179968
 C        -2.739160        -0.637900         1.164216
 C        -2.016654        -0.372036         2.493936
 C        -1.569815         0.907866         1.842460
 C        -2.837534         1.039670         1.008234
 C        -1.957492         1.635959        -0.196555
 C        -0.949751         0.533944         0.291216
 O         0.421916         0.410482        -0.019627
 C        -1.723816        -0.747844         0.000063
 H        -3.380324        -2.261292         2.004613
 H        -2.732259        -0.201307         3.304570
 H        -1.403998        -1.225682         2.875255
 H        -1.013676         1.619828         2.457962
 H        -3.740506         1.533807         1.368924
 H        -2.032479         1.645910        -1.289543
 H        -1.922438         2.700556         0.141375
 H         0.397103        -0.535554        -0.036105
 H        -2.109147        -0.802601        -1.005015
 H        -1.103731        -1.616275         0.038251
