19
Iteration:  2400charge 0 multiplicity 1
 O        -3.780309        -1.722055         1.313678
 C        -2.748285        -0.637279         1.134777
 C        -2.021577        -0.458841         2.401922
 C        -1.441456         0.830311         1.764132
 C        -2.787445         1.049277         1.075949
 C        -1.849063         1.595358        -0.146984
 C        -0.974022         0.457250         0.264724
 O         0.462950         0.604399         0.021726
 C        -1.737103        -0.823549        -0.056650
 H        -4.038702        -1.915011         0.430364
 H        -2.689812        -0.154435         3.202935
 H        -1.511182        -1.342097         2.683843
 H        -0.884864         1.570042         2.232227
 H        -3.645671         1.431605         1.531123
 H        -2.066232         1.701164        -1.202052
 H        -1.494876         2.580235         0.156973
 H         0.821620         1.003634         0.840072
 H        -2.250000        -0.892818        -0.980521
 H        -1.203631        -1.742229         0.160978
