19
Iteration:   903charge 0 multiplicity 1
 O        -3.781937        -1.732684         1.396645
 C        -2.744459        -0.614959         1.084525
 C        -1.918232        -0.494579         2.375218
 C        -1.443663         0.726979         1.740912
 C        -2.824718         1.077825         1.118115
 C        -1.980650         1.658379        -0.136173
 C        -0.936875         0.526041         0.300986
 O         0.465229         0.638350         0.099879
 C        -1.686236        -0.815288        -0.152319
 H        -4.307106        -1.961665         0.644466
 H        -2.774735        -0.225381         2.966612
 H        -1.253333        -1.271357         2.658409
 H        -0.917671         1.594257         2.391451
 H        -3.563635         1.662231         1.577621
 H        -2.260057         1.442631        -1.189409
 H        -1.574312         2.615766         0.033134
 H         0.795263        -0.126992        -0.368119
 H        -2.194465        -0.731380        -1.066036
 H        -1.211022        -1.746321         0.120653
