19
Iteration:   982
 O        -3.788950        -1.325318         0.931503
 C        -2.671115        -0.650072         1.236452
 C        -2.013464        -0.627674         2.579949
 C        -1.361852         0.690967         1.931387
 C        -2.710332         0.973750         1.243398
 C        -2.088552         1.369151        -0.158062
 C        -0.938710         0.475771         0.343701
 O         0.302070         0.756946        -0.381096
 C        -1.535642        -0.947455         0.299691
 H        -4.056891        -1.243727         0.016249
 H        -2.741013        -0.314055         3.350158
 H        -1.494747        -1.450767         3.057276
 H        -0.778544         1.390393         2.561608
 H        -3.538744         1.637488         1.637966
 H        -2.510042         1.160113        -1.153609
 H        -1.824387         2.419016        -0.201138
 H         0.515890         1.679131        -0.192502
 H        -1.791031        -1.375703        -0.670112
 H        -0.904306        -1.704813         0.733993
