19
Iteration:  3309
 O        -3.780731        -1.523164         0.887142
 C        -2.720233        -0.590721         1.202997
 C        -2.000309        -0.531198         2.652009
 C        -1.410485         0.773615         1.997426
 C        -2.787295         1.010263         1.131155
 C        -2.038599         1.452783        -0.159423
 C        -0.902234         0.557203         0.330065
 O         0.385747         0.624390        -0.187899
 C        -1.606939        -0.857563         0.150046
 H        -4.198277        -1.226127         0.098466
 H        -2.580298        -0.297233         3.573115
 H        -1.220742        -1.208283         3.072214
 H        -0.951724         1.579544         2.614338
 H        -3.603072         1.578646         1.454131
 H        -2.489240         1.217092        -1.089069
 H        -1.654411         2.497928        -0.171212
 H         0.695429        -0.268480        -0.269186
 H        -2.035643        -1.129642        -0.891095
 H        -0.799702        -1.616632         0.438103
