19
Iteration:  4130charge 0 multiplicity 1
 O        -3.866588        -1.481927         0.952794
 C        -2.751305        -0.581519         1.140653
 C        -2.005326        -0.565278         2.442057
 C        -1.337441         0.719483         1.891115
 C        -2.767230         1.057780         1.195900
 C        -1.976129         1.516949        -0.071895
 C        -0.923604         0.430108         0.336242
 O         0.407096         0.720233        -0.048537
 C        -1.682366        -0.845589         0.105603
 H        -3.633115        -1.982322         0.189392
 H        -2.571432        -0.508423         3.393766
 H        -1.388413        -1.447313         2.559737
 H        -0.650498         1.366667         2.410235
 H        -3.531552         1.541889         1.834134
 H        -2.517182         1.375425        -0.996587
 H        -1.578381         2.494885         0.137022
 H         0.809397        -0.037050        -0.433657
 H        -1.896891        -1.172545        -0.932264
 H        -1.126054        -1.697885         0.566767
