19
Iteration:  3936charge 0 multiplicity 1
 O        -3.877718        -1.261953         0.849110
 C        -2.673250        -0.637002         1.148799
 C        -2.017263        -0.609873         2.540570
 C        -1.374654         0.696764         1.962415
 C        -2.709936         0.907820         1.137073
 C        -1.991983         1.347561        -0.136708
 C        -0.946802         0.424440         0.367174
 O         0.306204         0.824898        -0.138998
 C        -1.521915        -0.948926         0.158551
 H        -4.472024        -1.193857         1.588306
 H        -2.660356        -0.144680         3.258319
 H        -1.335241        -1.392245         2.942038
 H        -0.981881         1.580729         2.400372
 H        -3.548383         1.428838         1.617237
 H        -2.471310         1.131715        -1.142378
 H        -1.785511         2.410928        -0.114306
 H         1.063584         0.309777         0.070624
 H        -1.782804        -1.112534        -0.917473
 H        -0.805779        -1.670892         0.460747
