19
Iteration:  1118
 O        -3.846056        -1.439818         1.013415
 C        -2.681930        -0.698923         1.140992
 C        -2.048436        -0.604162         2.586140
 C        -1.397879         0.706894         1.999177
 C        -2.695539         0.959793         1.214694
 C        -2.036440         1.517567         0.006239
 C        -0.896331         0.473517         0.357036
 O         0.289653         0.705129        -0.390900
 C        -1.484284        -0.889463         0.072434
 H        -4.294347        -1.290600         0.171167
 H        -2.902812        -0.468702         3.284268
 H        -1.497522        -1.444603         3.067252
 H        -0.937007         1.420002         2.619301
 H        -3.529958         1.393810         1.700118
 H        -2.480868         1.705871        -0.948412
 H        -1.492360         2.464139         0.223384
 H         0.550123         1.655494        -0.253948
 H        -1.712713        -1.132106        -0.989664
 H        -0.662104        -1.620473         0.311104
