19
Iteration:  2343charge 0 multiplicity 1
 O        -3.912073        -1.364788         0.951798
 C        -2.682927        -0.654915         1.209661
 C        -1.884568        -0.533909         2.565284
 C        -1.392761         0.748543         1.844614
 C        -2.735226         1.055990         1.113495
 C        -2.146967         1.345375        -0.190606
 C        -0.959876         0.432365         0.376827
 O         0.358115         0.795444        -0.086746
 C        -1.467420        -0.966903         0.202467
 H        -4.192266        -1.285968        -0.014079
 H        -2.509126        -0.222280         3.404359
 H        -1.255970        -1.368635         2.813137
 H        -0.937010         1.617195         2.341986
 H        -3.611157         1.597703         1.529068
 H        -2.677601         0.906632        -1.021982
 H        -1.779821         2.334965        -0.345757
 H         0.922865         0.025625        -0.314458
 H        -1.660546        -1.347921        -0.791366
 H        -0.953300        -1.738181         0.772018
