19
Iteration:  2312charge 0 multiplicity 1
 O        -3.893894        -1.380902         1.077407
 C        -2.730603        -0.636035         1.182707
 C        -2.039421        -0.479607         2.591790
 C        -1.343008         0.649971         1.846007
 C        -2.731241         0.898367         1.052307
 C        -2.068476         1.286157        -0.175473
 C        -0.864377         0.395829         0.325130
 O         0.462795         0.933420        -0.078696
 C        -1.549982        -0.975741         0.163933
 H        -4.384658        -1.184833         0.301544
 H        -2.754590        -0.031075         3.285488
 H        -1.569149        -1.342099         3.012710
 H        -0.963877         1.506878         2.319821
 H        -3.563083         1.491720         1.324517
 H        -2.467649         1.190698        -1.196683
 H        -1.705727         2.313109        -0.138979
 H         0.507373         1.164812        -1.026148
 H        -1.960891        -1.336907        -0.747805
 H        -1.058323        -1.760407         0.729576
