19
Iteration:  4821
 O        -3.796273        -1.522409         1.137444
 C        -2.666695        -0.667392         1.135120
 C        -1.892947        -0.499908         2.374718
 C        -1.453788         0.825849         1.738405
 C        -2.787981         1.085415         1.047931
 C        -1.988753         1.519719        -0.178130
 C        -0.997780         0.444783         0.365263
 O         0.364169         0.502590         0.233993
 C        -1.633956        -0.850749         0.047114
 H        -4.478316        -1.129496         0.555887
 H        -2.450517        -0.324621         3.271244
 H        -1.158703        -1.325715         2.448081
 H        -0.816377         1.702147         2.096151
 H        -3.598490         1.566041         1.583100
 H        -2.490445         1.418223        -1.165041
 H        -1.691060         2.535309        -0.030961
 H         0.548085         0.636994        -0.711756
 H        -1.823797        -1.022755        -1.058379
 H        -0.815442        -1.524307         0.392793
