19
Iteration:   633charge 0 multiplicity 1
 O        -3.981604        -1.257523         0.906444
 C        -2.732007        -0.696732         1.151756
 C        -1.771255        -0.635666         2.575274
 C        -1.332271         0.679794         1.911842
 C        -2.698930         0.895106         1.174697
 C        -2.142426         1.243427        -0.196572
 C        -0.936465         0.473707         0.409873
 O         0.322108         0.948279        -0.138819
 C        -1.461491        -0.991543         0.226672
 H        -4.586724        -0.533310         0.669669
 H        -2.344713        -0.207155         3.458091
 H        -0.989609        -1.351675         2.889376
 H        -0.683489         1.413751         2.538388
 H        -3.578430         1.470684         1.440409
 H        -2.860814         0.784921        -1.009517
 H        -1.930107         2.289617        -0.392164
 H         0.302837         0.719213        -1.108474
 H        -1.861738        -1.024498        -0.832889
 H        -0.768353        -1.708097         0.696007
