19
Iteration:  4238charge 0 multiplicity 1
 O        -3.864426        -1.318724         0.846887
 C        -2.686851        -0.611674         1.089452
 C        -2.037179        -0.548017         2.514897
 C        -1.386033         0.715075         1.905159
 C        -2.743182         0.970502         1.181186
 C        -2.007639         1.467724        -0.070344
 C        -0.966174         0.468825         0.398716
 O         0.404411         0.640052        -0.062066
 C        -1.512584        -0.917702         0.142592
 H        -3.824786        -2.091051         1.445723
 H        -2.840966        -0.183697         3.204610
 H        -1.486355        -1.390430         2.936286
 H        -0.826976         1.480823         2.445968
 H        -3.701495         1.202341         1.740740
 H        -2.429444         1.427894        -1.070759
 H        -1.704213         2.550880         0.084866
 H         0.222284         0.594803        -1.035276
 H        -1.854151        -0.944850        -0.892876
 H        -0.866113        -1.800522         0.311543
