19
Iteration:  2426charge 0 multiplicity 1
 O        -3.801636        -1.606916         1.266088
 C        -2.761484        -0.617002         1.088994
 C        -1.975848        -0.525786         2.400602
 C        -1.439349         0.701096         1.803754
 C        -2.708618         1.118239         1.067820
 C        -2.019456         1.571182        -0.224364
 C        -0.962865         0.459808         0.323956
 O         0.453258         0.600399         0.107219
 C        -1.625506        -0.864298        -0.021382
 H        -4.350420        -1.727625         0.503828
 H        -2.498092        -0.327158         3.356636
 H        -1.223641        -1.376561         2.548334
 H        -0.676901         1.300899         2.422034
 H        -3.540661         1.784482         1.520856
 H        -2.505829         1.414649        -1.237297
 H        -1.877458         2.698674        -0.244693
 H         0.757125         1.517492         0.289327
 H        -2.120726        -0.961126        -1.034491
 H        -1.218736        -1.830545         0.311772
