19
Iteration:  2425charge 0 multiplicity 1
 O        -3.788666        -1.607356         1.268886
 C        -2.769142        -0.620514         1.085272
 C        -1.977590        -0.523395         2.397926
 C        -1.437915         0.693356         1.802913
 C        -2.704605         1.122512         1.061572
 C        -2.019801         1.577615        -0.221944
 C        -0.960567         0.461761         0.325887
 O         0.453567         0.604492         0.108424
 C        -1.637392        -0.875652        -0.019303
 H        -4.370153        -1.764833         0.511542
 H        -2.515463        -0.320986         3.340148
 H        -1.232966        -1.357800         2.565108
 H        -0.697557         1.292639         2.411452
 H        -3.512980         1.806249         1.506136
 H        -2.517354         1.447311        -1.229225
 H        -1.863602         2.708927        -0.241631
 H         0.784232         1.521035         0.310398
 H        -2.133985        -0.959411        -1.014654
 H        -1.240839        -1.847902         0.297555
