19
Iteration:  3631
 O        -4.082593        -1.253390         0.982570
 C        -2.691643        -0.677425         1.142569
 C        -1.922444        -0.531200         2.556511
 C        -1.389131         0.701079         1.864591
 C        -2.770765         0.893964         1.067677
 C        -1.994082         1.441856        -0.193557
 C        -0.938550         0.434923         0.365060
 O         0.454685         0.761486        -0.037526
 C        -1.436843        -0.922014         0.200899
 H        -3.991769        -2.254056         0.870167
 H        -2.606198        -0.471531         3.361110
 H        -1.257543        -1.358344         2.753040
 H        -0.943205         1.544884         2.319245
 H        -3.625288         1.433566         1.454375
 H        -2.484216         1.037150        -1.046866
 H        -1.787560         2.445605        -0.077466
 H         0.366609         0.957746        -1.027781
 H        -1.902207        -1.339278        -0.730983
 H        -0.753575        -1.688650         0.634351
