19
Iteration:   620
 O        -3.883576        -1.340277         0.894860
 C        -2.669208        -0.618408         1.212555
 C        -1.888287        -0.580505         2.519881
 C        -1.352961         0.729326         1.858802
 C        -2.760065         0.949239         1.240913
 C        -2.159349         1.310998        -0.089157
 C        -0.896329         0.440396         0.302568
 O         0.359537         0.884177        -0.159011
 C        -1.509891        -1.004604         0.217547
 H        -4.570549        -0.648474         0.820067
 H        -2.475064        -0.481727         3.434482
 H        -1.256601        -1.447928         2.663665
 H        -0.972061         1.619332         2.425125
 H        -3.502814         1.287505         1.856827
 H        -2.641201         0.997334        -1.070285
 H        -1.831974         2.330853        -0.190172
 H         0.360569         0.721304        -1.101451
 H        -1.667155        -1.439273        -0.737693
 H        -0.973026        -1.832915         0.638715
