19
Iteration:  1130charge 0 multiplicity 1
 O        -3.804241        -1.455869         0.881842
 C        -2.696671        -0.599995         1.180555
 C        -2.073947        -0.649014         2.648772
 C        -1.366842         0.618960         2.037589
 C        -2.685637         0.954063         1.212932
 C        -1.968749         1.536103         0.011403
 C        -0.918161         0.500572         0.283903
 O         0.230247         0.698608        -0.487426
 C        -1.499568        -0.848141         0.271577
 H        -3.845609        -1.537228        -0.132395
 H        -2.773930        -0.203719         3.385848
 H        -1.451168        -1.509733         2.938334
 H        -0.839533         1.403102         2.596992
 H        -3.502688         1.500574         1.587675
 H        -2.602941         1.426348        -0.842213
 H        -1.688922         2.563948         0.259910
 H         0.490702         1.588155        -0.250908
 H        -1.895328        -1.082794        -0.734581
 H        -0.943477        -1.671450         0.779044
