19
Iteration:  2313
 O        -3.896741        -1.380861         1.068126
 C        -2.724185        -0.636687         1.187707
 C        -2.045067        -0.472464         2.592798
 C        -1.330707         0.649584         1.847517
 C        -2.723775         0.896606         1.053496
 C        -2.066271         1.274706        -0.177260
 C        -0.875963         0.402084         0.318162
 O         0.459056         0.941224        -0.079747
 C        -1.556972        -0.973212         0.175476
 H        -4.407408        -1.197355         0.280051
 H        -2.760517        -0.025943         3.299830
 H        -1.552402        -1.351740         2.989137
 H        -0.963279         1.473717         2.327639
 H        -3.540901         1.458880         1.361881
 H        -2.463630         1.172910        -1.210850
 H        -1.688580         2.315456        -0.116759
 H         0.541025         1.127108        -1.021115
 H        -1.960247        -1.332795        -0.756377
 H        -1.069756        -1.772838         0.737650
