19
Iteration:   811
 O        -4.048168        -1.118824         1.037075
 C        -2.663660        -0.712515         1.159516
 C        -1.986747        -0.626581         2.603006
 C        -1.317059         0.591185         1.872463
 C        -2.644266         0.867154         1.100923
 C        -2.101793         1.252877        -0.239396
 C        -0.920986         0.444503         0.265157
 O         0.269953         1.007942        -0.157297
 C        -1.386382        -0.950517         0.210975
 H        -3.992851        -2.118781         0.808733
 H        -2.744907        -0.281622         3.268360
 H        -1.283624        -1.402708         2.859625
 H        -0.800866         1.366186         2.287283
 H        -3.496281         1.378976         1.689898
 H        -2.538950         0.957766        -1.199390
 H        -1.691323         2.339762        -0.209871
 H         1.002778         0.608145         0.374457
 H        -1.769299        -1.305963        -0.738615
 H        -0.744237        -1.621729         0.775385
