19
Iteration:  2667charge 0 multiplicity 1
 O        -3.801619        -1.304943         0.817677
 C        -2.661833        -0.655856         1.227574
 C        -1.931707        -0.622596         2.659117
 C        -1.407750         0.776159         1.957400
 C        -2.685035         1.007378         1.194567
 C        -2.186000         1.490534        -0.162957
 C        -0.913751         0.536324         0.424544
 O         0.368550         0.583679        -0.212497
 C        -1.614787        -0.946907         0.133221
 H        -3.637272        -2.130985         0.349591
 H        -2.547721        -0.478704         3.544853
 H        -1.229450        -1.439557         2.897446
 H        -0.954012         1.551802         2.604667
 H        -3.635972         1.373108         1.719435
 H        -2.725482         1.015535        -0.981467
 H        -1.789731         2.515163        -0.123555
 H         0.400843         1.415199        -0.661820
 H        -1.956311        -1.011826        -0.930646
 H        -0.935331        -1.767697         0.364946
