19
Iteration:  1298charge 0 multiplicity 1
 O        -3.763478        -1.427993         0.752830
 C        -2.666412        -0.566170         1.182763
 C        -2.002257        -0.663934         2.563191
 C        -1.315535         0.738561         1.979290
 C        -2.721450         1.004527         1.334577
 C        -2.132245         1.415758        -0.096235
 C        -0.946415         0.498721         0.323782
 O         0.287039         0.731323        -0.363369
 C        -1.488466        -0.892493         0.390798
 H        -4.577260        -0.844238         0.564069
 H        -2.716441        -0.320489         3.284993
 H        -1.410493        -1.498984         2.911059
 H        -0.637745         1.522012         2.462783
 H        -3.602840         1.486768         1.845424
 H        -2.730902         1.301395        -0.980303
 H        -1.791036         2.400250         0.040224
 H         0.178012         0.209322        -1.154253
 H        -1.682371        -1.384192        -0.542018
 H        -0.877158        -1.623614         0.859804
