19
Iteration:  1305charge 0 multiplicity 1
 O        -3.788971        -1.386167         0.766323
 C        -2.700466        -0.646698         1.233002
 C        -2.057026        -0.632467         2.522637
 C        -1.335425         0.727030         1.949931
 C        -2.676665         1.016483         1.258114
 C        -2.117480         1.378907         0.007392
 C        -0.917838         0.467643         0.311300
 O         0.270203         0.799898        -0.377166
 C        -1.438519        -0.930384         0.400135
 H        -4.531889        -0.746722         0.585010
 H        -2.700585        -0.233031         3.408079
 H        -1.463225        -1.528948         2.883952
 H        -0.746819         1.558643         2.500561
 H        -3.450039         1.384512         1.959102
 H        -2.714330         1.112042        -0.942751
 H        -1.658635         2.418421        -0.174349
 H         0.201812         0.390489        -1.255309
 H        -1.762080        -1.357519        -0.624362
 H        -0.700432        -1.661601         0.904884
