19
Iteration:  3145charge 0 multiplicity 1
 O        -3.790678        -1.523808         0.907911
 C        -2.789222        -0.579750         1.206170
 C        -2.086125        -0.484028         2.491579
 C        -1.293265         0.685888         1.892717
 C        -2.697311         0.994245         1.144695
 C        -2.008449         1.468881        -0.120114
 C        -0.922090         0.436034         0.271755
 O         0.394867         0.714496        -0.110928
 C        -1.636097        -0.895232         0.216411
 H        -4.060997        -1.948663         1.780427
 H        -2.687571         0.012423         3.261149
 H        -1.838587        -1.465200         2.930934
 H        -0.683243         1.279305         2.536585
 H        -3.531003         1.504720         1.482264
 H        -2.536488         1.141149        -1.065309
 H        -1.641950         2.569570        -0.209160
 H         0.479655         1.428575        -0.810758
 H        -1.885789        -1.026180        -0.850486
 H        -0.838200        -1.544629         0.618573
