19
Iteration:  3489
 O        -3.935458        -1.324242         1.045645
 C        -2.735294        -0.656800         1.164560
 C        -1.936446        -0.498137         2.444130
 C        -1.411931         0.796323         1.788455
 C        -2.750367         0.921835         1.126297
 C        -2.043609         1.355611        -0.176224
 C        -0.905515         0.428612         0.411521
 O         0.372672         0.785409        -0.061638
 C        -1.478939        -0.966700         0.181631
 H        -4.269785        -1.207582         0.111195
 H        -2.528204        -0.282791         3.332106
 H        -1.166906        -1.252404         2.649931
 H        -1.009471         1.579246         2.351285
 H        -3.743688         1.310417         1.396157
 H        -2.598425         1.066377        -1.111268
 H        -1.669690         2.351960        -0.090139
 H         0.913117        -0.033681         0.246004
 H        -1.684024        -1.188535        -0.895570
 H        -0.847815        -1.762413         0.656264
