19
Iteration:  1536
 O        -3.781132        -1.613587         1.089645
 C        -2.741905        -0.638709         1.209868
 C        -1.980618        -0.441741         2.511331
 C        -1.444224         0.832210         1.844627
 C        -2.768267         0.995050         1.034170
 C        -2.004338         1.446160        -0.193686
 C        -0.961974         0.527934         0.331150
 O         0.379384         0.708293        -0.168455
 C        -1.556526        -0.927427         0.175166
 H        -4.701587        -1.300448         1.343757
 H        -2.638300        -0.133049         3.334778
 H        -1.222741        -1.171287         2.778086
 H        -0.938654         1.589703         2.355063
 H        -3.593426         1.473712         1.481359
 H        -2.203646         1.266873        -1.297194
 H        -1.698712         2.462537         0.038926
 H         1.005470         0.094894         0.213701
 H        -1.950591        -1.079251        -0.826232
 H        -0.886340        -1.724290         0.551438
