19
Iteration:  4421charge 0 multiplicity 1
 O        -3.868357        -1.303773         0.885520
 C        -2.724832        -0.548606         1.187214
 C        -1.939536        -0.575701         2.602478
 C        -1.442343         0.764288         1.962652
 C        -2.747811         0.942833         1.117639
 C        -2.003102         1.375891        -0.216149
 C        -0.932606         0.482449         0.342703
 O         0.366359         0.723380        -0.102973
 C        -1.535723        -0.965834         0.235008
 H        -3.781351        -1.613038         0.002423
 H        -2.667219        -0.401927         3.438818
 H        -1.305642        -1.431284         2.816707
 H        -0.965231         1.656408         2.465244
 H        -3.643979         1.356543         1.641431
 H        -2.377237         1.175525        -1.174622
 H        -1.757074         2.458470        -0.218246
 H         0.688967        -0.056230        -0.511941
 H        -2.067369        -1.233295        -0.714279
 H        -0.932812        -1.797849         0.628623
