19
Iteration:  2020
 O        -3.914945        -1.258476         0.910581
 C        -2.689244        -0.672237         1.184442
 C        -1.933932        -0.462030         2.605500
 C        -1.392518         0.830467         1.818478
 C        -2.784892         0.914720         1.109521
 C        -2.131634         1.286586        -0.213468
 C        -0.945365         0.496189         0.418083
 O         0.332914         0.725788        -0.182973
 C        -1.386106        -0.958265         0.252627
 H        -3.906382        -2.063707         0.424488
 H        -2.561161        -0.180095         3.473264
 H        -1.158211        -1.184525         2.978851
 H        -0.973160         1.680973         2.365489
 H        -3.641282         1.372357         1.600191
 H        -2.567268         0.822276        -1.094930
 H        -1.804809         2.343630        -0.237198
 H         0.796990         0.009870         0.318987
 H        -1.757643        -1.326039        -0.758385
 H        -0.707525        -1.643340         0.847085
