19
Iteration:  1950charge 0 multiplicity 1
 O        -3.735127        -1.580017         1.002621
 C        -2.691427        -0.643783         1.181760
 C        -1.991226        -0.446516         2.501664
 C        -1.394181         0.796370         1.805993
 C        -2.804282         1.008368         1.063730
 C        -2.018796         1.528667        -0.211272
 C        -0.954882         0.541100         0.343165
 O         0.364922         0.598621        -0.092490
 C        -1.632372        -0.883203         0.191484
 H        -4.318320        -1.484838         1.783104
 H        -2.580749        -0.170796         3.416435
 H        -1.333193        -1.254247         2.910891
 H        -0.911139         1.572350         2.391059
 H        -3.711450         1.505534         1.485368
 H        -2.351506         1.247137        -1.247385
 H        -1.830542         2.584395        -0.078529
 H         0.925007        -0.030253         0.412989
 H        -1.946410        -0.813243        -0.856730
 H        -0.921609        -1.749920         0.362205
