19
Iteration:  1554
 O        -3.676689        -1.728345         1.127172
 C        -2.665403        -0.700581         1.148009
 C        -2.036643        -0.358115         2.543896
 C        -1.518280         0.872406         1.823784
 C        -2.839335         0.990569         0.986180
 C        -1.921407         1.631513        -0.134873
 C        -0.919206         0.525686         0.361425
 O         0.392252         0.518190        -0.151951
 C        -1.658560        -0.815992         0.073970
 H        -4.119936        -1.581114         2.038217
 H        -2.884715        -0.043145         3.197802
 H        -1.305322        -1.041269         3.067145
 H        -1.149985         1.893523         2.281801
 H        -3.805552         1.543577         1.367071
 H        -2.400873         1.596324        -1.102316
 H        -1.470015         2.568657         0.264722
 H         0.828964        -0.299521         0.063750
 H        -2.217944        -0.798418        -0.917797
 H        -0.961939        -1.714601         0.169187
