19
Iteration:  1914charge 0 multiplicity 1
 O        -3.882837        -1.431557         1.298943
 C        -2.676011        -0.722136         1.138321
 C        -1.656196        -0.522808         2.288775
 C        -1.465056         0.837925         1.719795
 C        -2.853457         0.928160         1.023089
 C        -2.118364         1.505902        -0.251270
 C        -0.966347         0.531192         0.341491
 O         0.448698         0.592859         0.239916
 C        -1.647989        -0.908704        -0.031868
 H        -4.484810        -1.034926         0.656350
 H        -2.139361        -0.554445         3.256734
 H        -0.817973        -1.204287         2.235329
 H        -0.874965         1.632247         2.200512
 H        -3.796866         1.255870         1.373121
 H        -2.447618         1.289918        -1.259252
 H        -2.086627         2.625035        -0.223263
 H         0.701900         0.722279         1.195442
 H        -2.100628        -0.784282        -1.000825
 H        -1.154356        -1.809827        -0.110838
