19
Iteration:    66
 O        -3.686500        -1.705046         1.134101
 C        -2.732182        -0.672534         1.133901
 C        -1.878301        -0.522535         2.447424
 C        -1.510756         0.859311         1.854601
 C        -2.818164         1.039954         1.006392
 C        -1.912687         1.647401        -0.177083
 C        -0.981413         0.605790         0.380760
 O         0.346293         0.528650        -0.072925
 C        -1.697342        -0.788101         0.086030
 H        -4.158022        -1.674429         1.973901
 H        -2.573950        -0.462071         3.290808
 H        -1.028373        -1.216478         2.572319
 H        -1.039466         1.636460         2.431182
 H        -3.732381         1.544754         1.313486
 H        -2.234891         1.567915        -1.215705
 H        -1.776179         2.684059         0.106202
 H         0.675507        -0.367984         0.162572
 H        -2.018719        -0.756450        -0.966367
 H        -1.049133        -1.651256         0.235290
