19
Iteration:  1014
 O        -3.843813        -1.609527         1.152875
 C        -2.728040        -0.704498         1.129839
 C        -1.951378        -0.538863         2.469854
 C        -1.380270         0.804402         1.882439
 C        -2.730456         0.977520         1.147618
 C        -2.012755         1.594996        -0.083486
 C        -0.934301         0.586993         0.395642
 O         0.380192         0.599916        -0.282281
 C        -1.643101        -0.860894         0.098696
 H        -4.127977        -1.824438         0.203631
 H        -2.740757        -0.245392         3.185469
 H        -1.292338        -1.329591         2.821581
 H        -0.932410         1.592533         2.574395
 H        -3.571617         1.586674         1.587142
 H        -2.307588         1.595735        -1.177843
 H        -1.697937         2.558699         0.287240
 H         0.999496         1.038763         0.337911
 H        -2.015875        -0.873490        -0.920384
 H        -1.083501        -1.752816         0.352698
