19
Iteration:  4928charge 0 multiplicity 1
 O        -4.019360        -1.438768         0.894122
 C        -2.750208        -0.690095         1.108287
 C        -1.938778        -0.517088         2.576002
 C        -1.305808         0.717720         1.836161
 C        -2.697408         0.937310         1.155404
 C        -2.058474         1.452737        -0.160162
 C        -0.962936         0.560065         0.331280
 O         0.495382         0.665588        -0.055164
 C        -1.579081        -0.813649         0.129672
 H        -3.995439        -2.146064         1.600039
 H        -2.539495        -0.256952         3.441968
 H        -1.190886        -1.315933         2.828532
 H        -0.938915         1.725392         2.243923
 H        -3.499995         1.454545         1.588605
 H        -2.698094         1.124929        -1.078797
 H        -1.837214         2.537152        -0.271980
 H         1.007871         0.534270         0.785957
 H        -2.146675        -0.758093        -0.793393
 H        -1.017517        -1.771502         0.171279
