19
Iteration:  4285charge 0 multiplicity 1
 O        -3.946968        -1.357996         0.968404
 C        -2.739894        -0.683255         1.187133
 C        -1.974510        -0.533661         2.469488
 C        -1.378993         0.793990         1.881120
 C        -2.813476         0.931861         1.118966
 C        -2.035108         1.421933        -0.068678
 C        -0.837151         0.453515         0.388930
 O         0.479731         0.620388        -0.095927
 C        -1.588079        -0.873002         0.152068
 H        -3.947456        -1.745068         0.036836
 H        -2.563194        -0.226795         3.343428
 H        -1.336894        -1.435209         2.699917
 H        -0.982885         1.589890         2.487739
 H        -3.649147         1.523947         1.535481
 H        -2.341074         1.305018        -1.175895
 H        -1.688858         2.455127        -0.093542
 H         0.619069         1.618127        -0.111689
 H        -1.928673        -1.056080        -0.973065
 H        -1.049944        -1.849835         0.419054
