19
Iteration:  3442charge 0 multiplicity 1
 O        -3.804168        -1.561427         1.043134
 C        -2.711436        -0.636468         1.113993
 C        -2.110970        -0.420410         2.533829
 C        -1.431146         0.784474         1.919150
 C        -2.813538         1.026952         1.107480
 C        -1.995435         1.525870        -0.066197
 C        -0.844499         0.494248         0.403525
 O         0.415964         0.621839        -0.271333
 C        -1.545214        -0.892646         0.200175
 H        -3.795395        -1.936192         0.176793
 H        -2.949509         0.019370         3.166269
 H        -1.663546        -1.392624         2.884929
 H        -1.021242         1.672544         2.476999
 H        -3.601687         1.631694         1.666756
 H        -2.314756         1.396191        -1.090308
 H        -1.729791         2.572150         0.168721
 H         0.849397        -0.224556        -0.248984
 H        -1.895129        -0.889419        -0.896219
 H        -0.988770        -1.880486         0.473200
