19
Iteration:   439charge 0 multiplicity 1
 O        -3.834350        -1.480954         0.954699
 C        -2.665217        -0.671727         1.183806
 C        -1.909501        -0.582812         2.557979
 C        -1.370071         0.758564         2.013231
 C        -2.719881         0.940692         1.158203
 C        -2.121859         1.533603        -0.098888
 C        -0.948189         0.545142         0.338619
 O         0.296810         0.607184        -0.309115
 C        -1.548106        -0.837144         0.189285
 H        -4.245690        -1.313101         0.067932
 H        -2.520200        -0.334453         3.457297
 H        -1.206019        -1.390833         2.771868
 H        -0.773559         1.549326         2.574063
 H        -3.784798         1.299341         1.532968
 H        -2.485285         1.534227        -1.130415
 H        -1.956223         2.588570         0.187684
 H         0.993400         1.128386         0.153881
 H        -1.950588        -1.156191        -0.765136
 H        -0.829730        -1.649346         0.379075
