19
Iteration:  1545charge 0 multiplicity 1
 O        -3.727231        -1.685569         1.110993
 C        -2.721196        -0.720297         1.196264
 C        -2.015608        -0.374505         2.525652
 C        -1.497747         0.905319         1.806186
 C        -2.797672         0.999743         1.024425
 C        -1.953966         1.542146        -0.154179
 C        -0.905867         0.465582         0.333272
 O         0.363773         0.610356        -0.166999
 C        -1.572306        -0.850743         0.143626
 H        -4.483863        -1.419141         1.732359
 H        -2.694718        -0.086293         3.350853
 H        -1.479714        -1.248364         2.904032
 H        -1.055111         1.752414         2.363335
 H        -3.697990         1.516937         1.441964
 H        -2.270210         1.726592        -1.217386
 H        -1.659356         2.565757         0.134129
 H         0.864313        -0.132603         0.170841
 H        -1.951128        -0.784887        -0.912514
 H        -0.930954        -1.784472         0.089513
