19
Iteration:  2826
 O        -3.992842        -1.254713         1.033287
 C        -2.628687        -0.720756         1.198250
 C        -1.978745        -0.629251         2.570738
 C        -1.586421         0.711678         2.027993
 C        -2.725307         0.841554         1.038845
 C        -1.970051         1.524283        -0.133942
 C        -0.885062         0.553558         0.306088
 O         0.386340         0.658123        -0.278725
 C        -1.379997        -0.914813         0.205615
 H        -4.237364        -1.920379         0.391039
 H        -2.491278        -0.619884         3.550464
 H        -1.119587        -1.343804         2.761959
 H        -1.172292         1.560495         2.641572
 H        -3.790348         1.191759         1.403234
 H        -2.355520         1.550980        -1.185721
 H        -1.768662         2.410289         0.503902
 H         0.199582         1.471296        -0.752352
 H        -1.817762        -0.965214        -0.795020
 H        -0.642668        -1.665478         0.513272
