19
Iteration:  1887
 O        -3.907510        -1.325099         1.334379
 C        -2.721114        -0.664842         1.111057
 C        -1.830507        -0.642162         2.361567
 C        -1.478666         0.728989         1.810541
 C        -2.795927         0.930766         1.022490
 C        -2.034884         1.437820        -0.207102
 C        -0.945685         0.517843         0.317289
 O         0.451093         0.676918         0.075644
 C        -1.569716        -0.856119        -0.009220
 H        -4.055792        -2.095677         0.795478
 H        -2.420563        -0.823887         3.286316
 H        -1.004850        -1.420932         2.432491
 H        -1.084120         1.572506         2.450543
 H        -3.777984         1.433674         1.284221
 H        -2.347754         1.391911        -1.282902
 H        -1.956175         2.521910        -0.054843
 H         0.521949         1.632386         0.362481
 H        -1.816334        -0.882954        -1.140965
 H        -0.988516        -1.865212         0.111015
