19
Iteration:  3272
 O        -3.941310        -1.460903         1.078807
 C        -2.727677        -0.673630         1.105329
 C        -1.935782        -0.495851         2.503051
 C        -1.430278         0.773227         1.916328
 C        -2.783878         0.960052         1.058355
 C        -2.034650         1.546210        -0.101938
 C        -0.977728         0.534832         0.389621
 O         0.438833         0.633894        -0.107875
 C        -1.457625        -0.885895         0.102092
 H        -3.942141        -1.950981         0.232265
 H        -2.609068        -0.274130         3.336429
 H        -1.251322        -1.350036         2.748228
 H        -0.986450         1.591676         2.477127
 H        -3.691046         1.464056         1.537615
 H        -2.436081         1.607832        -1.140519
 H        -1.740732         2.550067         0.169463
 H         0.485900        -0.196323        -0.595512
 H        -1.572678        -1.238152        -0.921159
 H        -0.799554        -1.555772         0.622666
