19
Iteration:  4814charge 0 multiplicity 1
 O        -3.822895        -1.526786         1.169999
 C        -2.738557        -0.677058         1.086070
 C        -1.872912        -0.493328         2.356443
 C        -1.442874         0.857362         1.780595
 C        -2.794083         1.018119         1.073024
 C        -2.038763         1.574769        -0.184061
 C        -0.948845         0.516637         0.314747
 O         0.427794         0.482910         0.245327
 C        -1.604039        -0.903053         0.040465
 H        -4.510707        -1.093262         0.586970
 H        -2.463229        -0.503856         3.347132
 H        -1.100371        -1.280576         2.582968
 H        -0.912046         1.712904         2.124414
 H        -3.653443         1.770634         1.371329
 H        -2.423531         1.444315        -1.180941
 H        -1.801272         2.659749         0.001246
 H         0.552324         0.665849        -0.746615
 H        -1.856796        -1.152858        -1.004334
 H        -0.976823        -1.734992         0.354658
