19
Iteration:    74
 O        -3.765332        -1.618096         1.104566
 C        -2.690531        -0.638700         1.130005
 C        -1.826572        -0.494143         2.445196
 C        -1.498451         0.795390         1.860859
 C        -2.895670         0.983624         1.012483
 C        -1.995575         1.592040        -0.150427
 C        -0.985456         0.543445         0.373720
 O         0.410433         0.584195        -0.039819
 C        -1.666969        -0.773582         0.042644
 H        -4.042986        -1.734742         1.993033
 H        -2.314533        -0.276007         3.407167
 H        -1.149266        -1.313390         2.759662
 H        -1.002117         1.674659         2.359267
 H        -3.685878         1.507791         1.443040
 H        -2.272847         1.476400        -1.274709
 H        -1.702627         2.605254        -0.023071
 H         0.852435        -0.279989        -0.032988
 H        -2.045186        -1.095467        -0.943272
 H        -1.001201        -1.600842         0.367940
