19
Iteration:    33
 O        -3.537340        -1.853022         1.124656
 C        -2.800667        -0.656940         1.147110
 C        -1.974987        -0.395751         2.539773
 C        -1.481134         0.796913         1.813872
 C        -2.819132         1.208706         1.118303
 C        -1.919225         1.663819        -0.102019
 C        -0.962413         0.519227         0.330647
 O         0.412663         0.504863        -0.141534
 C        -1.797760        -0.789630        -0.014136
 H        -4.565690        -1.746494         1.240716
 H        -2.843793        -0.150109         3.231300
 H        -1.356524        -1.019530         3.245550
 H        -0.781085         1.467854         2.316372
 H        -3.681868         1.756136         1.395507
 H        -2.311735         1.586918        -1.154591
 H        -1.703257         2.699625         0.082406
 H         0.843438        -0.146917         0.475816
 H        -2.033738        -0.816636        -1.083977
 H        -1.247695        -1.709704         0.183781
