19
Iteration:  1464
 O        -3.886935        -1.341291         0.911268
 C        -2.694865        -0.684108         1.239829
 C        -1.922545        -0.471091         2.568866
 C        -1.330864         0.777238         1.857862
 C        -2.787089         0.898099         1.077956
 C        -2.081198         1.254315        -0.226311
 C        -0.927766         0.444848         0.320816
 O         0.314021         0.908348        -0.192949
 C        -1.471383        -1.058238         0.296687
 H        -4.621035        -0.767208         1.291949
 H        -2.563298        -0.238016         3.423773
 H        -1.198657        -1.287409         2.758599
 H        -0.891487         1.629643         2.385464
 H        -3.577606         1.505256         1.597249
 H        -2.579066         0.968447        -1.115509
 H        -1.902494         2.319462        -0.214523
 H         1.096461         0.554566         0.251392
 H        -1.910618        -1.376699        -0.635247
 H        -0.849106        -1.790526         0.792563
