19
Iteration:   467charge 0 multiplicity 1
 O        -3.840734        -1.378211         0.870694
 C        -2.698105        -0.613144         1.147212
 C        -2.034010        -0.572429         2.599058
 C        -1.322550         0.651827         1.921565
 C        -2.682920         1.005311         1.300014
 C        -2.127377         1.434176        -0.033839
 C        -0.900026         0.424923         0.386841
 O         0.298612         0.769489        -0.359469
 C        -1.492005        -0.945166         0.235951
 H        -3.815231        -1.937954         0.006254
 H        -2.598574        -0.122794         3.424294
 H        -1.445668        -1.448801         2.946995
 H        -0.708849         1.420089         2.314355
 H        -3.456681         1.313583         1.881867
 H        -2.697429         1.197254        -0.981022
 H        -1.735358         2.474874        -0.085306
 H         0.225250         1.661230        -0.766431
 H        -1.862835        -1.280055        -0.812066
 H        -0.898385        -1.644108         0.876208
