19
Iteration:  2013
 O        -3.938064        -1.213747         0.927373
 C        -2.646325        -0.720653         1.160822
 C        -2.002080        -0.501256         2.674872
 C        -1.438381         0.818612         1.865414
 C        -2.778196         0.857213         1.126036
 C        -2.073325         1.333004        -0.226962
 C        -0.922553         0.503722         0.324039
 O         0.291346         0.722283        -0.238784
 C        -1.361067        -0.925643         0.328237
 H        -3.756740        -2.051746         0.427148
 H        -2.735081        -0.146684         3.387955
 H        -1.266390        -1.157255         3.068907
 H        -0.968892         1.638760         2.395885
 H        -3.637026         1.212478         1.663018
 H        -2.389171         0.874433        -1.172247
 H        -1.773892         2.396574        -0.262628
 H         0.922863        -0.001973        -0.088379
 H        -1.506676        -1.272745        -0.666398
 H        -0.640313        -1.475531         0.863115
