19
Iteration:   708
 O        -3.629079        -1.764203         1.172160
 C        -2.699985        -0.654977         1.192823
 C        -1.898276        -0.453582         2.455538
 C        -1.515051         0.794245         1.809493
 C        -2.843824         1.055398         1.013992
 C        -1.944089         1.662419        -0.160639
 C        -0.942505         0.548163         0.391345
 O         0.406226         0.462595         0.008002
 C        -1.771980        -0.683612         0.040853
 H        -4.523267        -1.453069         1.022949
 H        -2.636674        -0.508146         3.298949
 H        -1.142128        -1.121490         2.836383
 H        -0.903911         1.606223         2.395661
 H        -3.650072         1.578647         1.404483
 H        -2.231870         1.504916        -1.242370
 H        -1.809311         2.692298         0.041371
 H         0.568887         0.113431        -0.861923
 H        -2.255990        -0.672542        -0.960968
 H        -1.202800        -1.625111        -0.055144
