19
Iteration:  1033
 O        -3.750073        -1.518094         1.283349
 C        -2.695209        -0.643781         1.169749
 C        -1.847168        -0.590580         2.423959
 C        -1.482798         0.718988         1.784221
 C        -2.876268         0.931575         1.085009
 C        -2.045871         1.666413        -0.091658
 C        -0.946096         0.554279         0.247672
 O         0.407621         0.471454        -0.030310
 C        -1.645125        -0.711138        -0.046336
 H        -4.101160        -1.862088         0.396417
 H        -2.435977        -0.517428         3.357668
 H        -1.109168        -1.407964         2.515622
 H        -0.932603         1.631421         2.344083
 H        -3.716208         1.393965         1.556964
 H        -2.554095         1.619844        -1.127492
 H        -1.826972         2.729970         0.141501
 H         0.940819         0.845638         0.666941
 H        -2.205197        -0.755044        -0.993600
 H        -0.867753        -1.531500        -0.100389
