19
Iteration:  4681
 O        -3.901342        -1.502810         1.213119
 C        -2.763821        -0.658568         1.079326
 C        -1.988992        -0.562834         2.433909
 C        -1.431733         0.737407         1.798361
 C        -2.765115         1.044362         1.017901
 C        -1.951811         1.526816        -0.166504
 C        -0.916218         0.510088         0.317895
 O         0.481423         0.651278         0.078643
 C        -1.619065        -0.872516         0.143881
 H        -4.230242        -1.632664         0.277623
 H        -2.729920        -0.480019         3.260802
 H        -1.202387        -1.353988         2.794121
 H        -0.757439         1.442513         2.356496
 H        -3.606389         1.640224         1.418003
 H        -2.302482         1.505091        -1.224318
 H        -1.774151         2.604551        -0.025496
 H         0.708139         0.502215        -0.893671
 H        -1.880533        -1.080559        -0.892268
 H        -1.016052        -1.702438         0.450296
