19
Iteration:  4703charge 0 multiplicity 1
 O        -3.828191        -1.344357         1.024679
 C        -2.666361        -0.625771         1.118776
 C        -1.943177        -0.502962         2.478904
 C        -1.524752         0.871654         1.951023
 C        -2.803031         0.989299         1.088280
 C        -1.990096         1.427373        -0.111431
 C        -0.909261         0.385173         0.403683
 O         0.394886         0.590381        -0.044478
 C        -1.528551        -0.940553         0.105576
 H        -4.019357        -1.516267         0.107372
 H        -2.552603        -0.362167         3.404061
 H        -1.334588        -1.467040         2.675074
 H        -1.180409         1.739947         2.569288
 H        -3.741982         1.333937         1.588816
 H        -2.363638         1.407042        -1.158657
 H        -1.737933         2.496917        -0.046746
 H         0.436671         0.573390        -0.984168
 H        -2.002802        -1.070402        -0.857180
 H        -0.934646        -1.802598         0.283149
