19
Iteration:  4432
 O        -3.822600        -1.263554         0.935411
 C        -2.658373        -0.611889         1.122666
 C        -1.991709        -0.532535         2.536718
 C        -1.484944         0.833499         1.907751
 C        -2.795207         0.960501         1.091963
 C        -2.083915         1.407750        -0.079440
 C        -0.864472         0.351357         0.438237
 O         0.353884         0.688006        -0.115403
 C        -1.497820        -0.978213         0.191244
 H        -3.826343        -1.620862         0.039578
 H        -2.583298        -0.298624         3.445700
 H        -1.285928        -1.320031         2.797510
 H        -1.017440         1.692371         2.481167
 H        -3.674099         1.545738         1.475682
 H        -2.427306         1.136862        -1.023849
 H        -1.755313         2.471469         0.012217
 H         0.659550        -0.045194        -0.722069
 H        -1.764075        -1.049820        -0.939515
 H        -1.061360        -1.941060         0.480093
