19
Iteration:  2508
 O        -3.814860        -1.538929         1.019147
 C        -2.791528        -0.565499         1.155189
 C        -2.120526        -0.522369         2.578273
 C        -1.237119         0.637666         1.976886
 C        -2.770077         1.013600         1.122255
 C        -2.054310         1.502508        -0.175119
 C        -0.909812         0.508520         0.428772
 O         0.418420         0.687499        -0.285168
 C        -1.525690        -0.893276         0.219865
 H        -4.102262        -1.590018         0.096893
 H        -2.713110        -0.092133         3.404078
 H        -1.753826        -1.503971         2.762782
 H        -0.635858         1.358722         2.421369
 H        -3.575920         1.528299         1.525710
 H        -2.641037         1.103527        -0.976188
 H        -1.619285         2.436232        -0.335795
 H         0.512655         1.627201        -0.350976
 H        -1.867503        -1.026661        -0.793917
 H        -1.097988        -1.878286         0.502489
