19
Iteration:  2324
 O        -3.936469        -1.401207         0.989272
 C        -2.733186        -0.639125         1.217359
 C        -2.055582        -0.478238         2.555346
 C        -1.261729         0.722966         1.837727
 C        -2.683786         0.886981         1.130661
 C        -2.009402         1.278195        -0.250121
 C        -0.914254         0.447850         0.266550
 O         0.378138         0.970396        -0.061324
 C        -1.582047        -1.016708         0.306632
 H        -4.274028        -1.119149         0.069612
 H        -2.677825        -0.072474         3.364771
 H        -1.458230        -1.290690         2.941909
 H        -0.704434         1.384176         2.383552
 H        -3.397728         1.274958         1.760147
 H        -2.480283         0.920865        -1.189164
 H        -1.743445         2.347861        -0.181847
 H         0.609123         0.556973        -0.905564
 H        -1.901871        -1.157882        -0.712892
 H        -0.910415        -1.847829         0.530267
