19
Iteration:   223charge 0 multiplicity 1
 O        -3.723525        -1.616193         1.378116
 C        -2.694337        -0.726039         1.110103
 C        -1.771790        -0.606124         2.294547
 C        -1.517910         0.852498         1.735422
 C        -2.770980         1.010149         1.052396
 C        -2.017854         1.702512        -0.229868
 C        -0.988646         0.528128         0.306428
 O         0.410790         0.492107         0.220357
 C        -1.809646        -0.769742        -0.088455
 H        -4.179359        -1.932533         0.625222
 H        -2.411831        -0.478899         3.182253
 H        -0.977556        -1.357220         2.342138
 H        -0.829851         1.554858         2.333662
 H        -3.687622         1.509230         1.570998
 H        -2.309273         1.526055        -1.218505
 H        -1.585680         2.737629        -0.002457
 H         0.746595         1.384465         0.264795
 H        -2.466203        -0.656330        -0.968799
 H        -1.190416        -1.693135        -0.183170
