19
Iteration:  3795
 O        -3.873217        -1.260026         0.871317
 C        -2.673528        -0.599742         1.135032
 C        -1.980338        -0.544419         2.514490
 C        -1.289685         0.694375         1.851821
 C        -2.720106         0.903221         1.114039
 C        -2.110213         1.346181        -0.177649
 C        -0.901695         0.388794         0.401497
 O         0.317029         0.860567        -0.031736
 C        -1.514750        -1.002060         0.160215
 H        -4.483625        -0.989318         1.548212
 H        -2.740365        -0.135458         3.224464
 H        -1.276313        -1.313926         3.015338
 H        -0.770598         1.460561         2.529675
 H        -3.580327         1.449101         1.574067
 H        -2.702202         0.946921        -1.089036
 H        -1.795972         2.389530        -0.198467
 H         0.717421         0.007451        -0.014622
 H        -1.930783        -1.192733        -0.907351
 H        -1.002266        -1.937456         0.552266
