19
Iteration:   431
 O        -3.833703        -1.500441         1.039463
 C        -2.675527        -0.692596         1.103037
 C        -1.840704        -0.569089         2.529059
 C        -1.419655         0.770560         1.952816
 C        -2.786850         0.932953         1.126007
 C        -2.083952         1.562214        -0.094201
 C        -0.916921         0.576702         0.412273
 O         0.303511         0.572133        -0.244977
 C        -1.579612        -0.823046         0.116749
 H        -4.385836        -1.216724         0.229192
 H        -2.443540        -0.501710         3.414444
 H        -1.051144        -1.298831         2.704772
 H        -0.886433         1.590690         2.468937
 H        -3.770001         1.233849         1.733480
 H        -2.602335         1.396744        -1.040406
 H        -1.737747         2.689271         0.000098
 H         0.991526         0.984364         0.321214
 H        -1.880681        -0.940001        -0.944642
 H        -0.866076        -1.666577         0.320002
