19
Iteration:   602
 O        -3.769094        -1.494623         0.948188
 C        -2.682715        -0.655148         1.169911
 C        -1.933238        -0.566773         2.535808
 C        -1.351542         0.733001         1.850456
 C        -2.734081         0.937730         1.152203
 C        -2.117922         1.502491        -0.099962
 C        -0.981898         0.539842         0.292829
 O         0.360312         0.691863        -0.110394
 C        -1.571413        -0.893283         0.199904
 H        -4.625811        -1.131586         1.273087
 H        -2.615848        -0.140510         3.333501
 H        -1.241981        -1.365387         2.890228
 H        -0.724349         1.532744         2.344769
 H        -3.670232         1.437273         1.619899
 H        -2.733170         1.521865        -1.039065
 H        -1.765749         2.527259         0.120949
 H         0.412359         0.631144        -1.065860
 H        -2.004298        -1.179813        -0.860112
 H        -0.761176        -1.650159         0.433605
