19
Iteration:  1855charge 0 multiplicity 1
 O        -3.874492        -1.456221         0.883964
 C        -2.772706        -0.672586         1.220186
 C        -1.986689        -0.513038         2.578186
 C        -1.354447         0.734266         1.873894
 C        -2.691061         0.932511         1.192214
 C        -2.032226         1.516620        -0.096652
 C        -0.920721         0.490453         0.296984
 O         0.365501         0.637808        -0.204512
 C        -1.532422        -0.846086         0.182413
 H        -3.734904        -2.401581         1.223138
 H        -2.743967        -0.145279         3.298449
 H        -1.441377        -1.388683         3.028631
 H        -0.936671         1.596948         2.454788
 H        -3.536303         1.572736         1.581933
 H        -2.381755         1.345028        -1.136159
 H        -1.936874         2.567840         0.239466
 H         0.438075         1.482869        -0.640426
 H        -1.921208        -1.037115        -0.863045
 H        -0.928139        -1.689099         0.636990
