19
Iteration:  3331
 O        -3.913856        -1.538447         1.006388
 C        -2.747332        -0.651370         1.164603
 C        -1.963926        -0.477500         2.446995
 C        -1.384357         0.763752         1.842265
 C        -2.703765         0.996477         1.136890
 C        -1.985008         1.398969        -0.156065
 C        -0.913309         0.451033         0.447362
 O         0.402053         0.822466        -0.119728
 C        -1.634651        -0.938981         0.146058
 H        -4.469375        -1.083506         0.299231
 H        -2.637343        -0.235841         3.310870
 H        -1.389211        -1.364429         2.819735
 H        -0.761943         1.586817         2.268442
 H        -3.443823         1.528670         1.683904
 H        -2.448113         1.210191        -1.092128
 H        -1.584789         2.430902        -0.035895
 H         1.064367         0.257476         0.394359
 H        -1.923127        -1.029098        -0.963935
 H        -0.983733        -1.834711         0.461121
