19
Iteration:   189charge 0 multiplicity 1
 O        -3.630280        -1.692299         1.169345
 C        -2.740470        -0.641918         1.112687
 C        -1.910401        -0.448648         2.433137
 C        -1.486265         0.853295         1.873889
 C        -2.787495         1.004100         1.093639
 C        -2.061229         1.664667        -0.140615
 C        -0.962153         0.593660         0.340469
 O         0.377055         0.395070        -0.112572
 C        -1.685358        -0.779282         0.074904
 H        -4.219389        -1.706586         0.441669
 H        -2.572900        -0.243789         3.287612
 H        -1.278851        -1.248750         2.770306
 H        -0.873838         1.679865         2.332700
 H        -3.736494         1.460979         1.640930
 H        -2.345470         1.529874        -1.124621
 H        -1.712158         2.744154        -0.039700
 H         0.966491         0.726368         0.586924
 H        -2.134905        -0.906037        -0.905953
 H        -1.187052        -1.726155         0.315402
