19
Iteration:  2832charge 0 multiplicity 1
 O        -3.987835        -1.260262         1.094677
 C        -2.684452        -0.741616         1.139716
 C        -1.962892        -0.631886         2.527744
 C        -1.504601         0.749628         2.039361
 C        -2.787152         0.827640         0.989294
 C        -1.968609         1.547531        -0.097763
 C        -0.912311         0.504206         0.295693
 O         0.401333         0.681351        -0.252728
 C        -1.406247        -0.930075         0.245730
 H        -4.184920        -1.883910         0.410065
 H        -2.554656        -0.618760         3.459538
 H        -1.253628        -1.450368         2.578803
 H        -1.124426         1.511602         2.690954
 H        -3.722412         1.203342         1.253562
 H        -2.343249         1.744757        -1.124907
 H        -1.683562         2.538763         0.327591
 H         0.253636         1.505277        -0.729469
 H        -1.550125        -1.149457        -0.853612
 H        -0.492130        -1.525328         0.512260
