19
Iteration:  3032charge 0 multiplicity 1
 O        -3.829421        -1.557813         1.076183
 C        -2.738574        -0.632606         1.212916
 C        -2.031786        -0.484586         2.582082
 C        -1.518756         0.744673         1.955670
 C        -2.753300         1.031384         1.066322
 C        -1.915505         1.491136        -0.095339
 C        -0.880194         0.514920         0.326360
 O         0.406012         0.632537        -0.235370
 C        -1.627663        -0.873476         0.066032
 H        -3.591748        -2.197551         0.335622
 H        -2.815374        -0.406602         3.362249
 H        -1.359361        -1.320857         2.880616
 H        -0.966684         1.469559         2.612067
 H        -3.776410         1.405258         1.448395
 H        -2.135324         1.509484        -1.178039
 H        -1.471227         2.440542         0.269111
 H         0.786540         1.536205        -0.074065
 H        -2.136581        -0.882628        -0.982861
 H        -0.924075        -1.732596         0.176329
