19
Iteration:  3651
 O        -3.972034        -1.201499         1.016204
 C        -2.685291        -0.697353         1.104935
 C        -1.973396        -0.567185         2.439278
 C        -1.410791         0.824985         1.828359
 C        -2.771630         0.791737         1.078951
 C        -2.059698         1.397236        -0.145035
 C        -0.907002         0.549454         0.405775
 O         0.452345         0.721867        -0.022485
 C        -1.485733        -0.969402         0.131183
 H        -4.134296        -2.027225         1.541558
 H        -2.541850        -0.058375         3.223169
 H        -1.407609        -1.398891         2.931606
 H        -1.093901         1.479830         2.516540
 H        -3.626675         1.224548         1.576864
 H        -2.471710         1.289890        -1.163568
 H        -1.769979         2.347096         0.314900
 H         0.642685         0.370454        -0.893355
 H        -1.641974        -1.158330        -0.982270
 H        -0.869045        -1.817158         0.581310
