19
Iteration:  3895charge 0 multiplicity 1
 O        -3.931926        -1.464002         1.022659
 C        -2.781187        -0.635805         1.113461
 C        -1.862801        -0.568183         2.460428
 C        -1.412472         0.745106         1.764657
 C        -2.772331         0.896536         1.086356
 C        -1.990878         1.431247        -0.174647
 C        -0.903472         0.542506         0.348434
 O         0.447915         0.678477         0.024872
 C        -1.611869        -0.786542         0.085027
 H        -4.537701        -1.290520         1.804204
 H        -2.515786        -0.227902         3.295660
 H        -1.201640        -1.453172         2.662882
 H        -0.961281         1.484252         2.489703
 H        -3.547617         1.472864         1.588756
 H        -2.236854         1.413506        -1.247177
 H        -1.791499         2.472312         0.032220
 H         0.861408         0.227307         0.818511
 H        -1.961471        -0.756941        -0.989489
 H        -1.094093        -1.754253         0.240648
