19
Iteration:  4654
 O        -3.890353        -1.555897         1.259421
 C        -2.785773        -0.624529         1.086371
 C        -1.943229        -0.483094         2.458592
 C        -1.396461         0.749463         1.748565
 C        -2.734612         0.973976         1.069244
 C        -1.988702         1.502363        -0.215925
 C        -0.938862         0.503901         0.273086
 O         0.499829         0.643800         0.245820
 C        -1.667076        -0.837180        -0.062272
 H        -4.398312        -1.486999         0.397620
 H        -2.690094        -0.313309         3.247518
 H        -1.210734        -1.183211         2.803731
 H        -0.845137         1.527097         2.258338
 H        -3.561236         1.495091         1.563712
 H        -2.475244         1.425909        -1.174052
 H        -1.689085         2.596547        -0.158515
 H         1.025147         0.317801        -0.554692
 H        -2.043870        -0.850020        -1.134265
 H        -1.155488        -1.839335         0.066430
