19
Iteration:    85charge 0 multiplicity 1
 O        -3.839485        -1.464333         1.053571
 C        -2.735842        -0.637135         1.171813
 C        -1.854729        -0.500221         2.483428
 C        -1.424634         0.803489         1.751928
 C        -2.861402         0.922224         1.096759
 C        -2.112203         1.455825        -0.133842
 C        -0.921165         0.494838         0.283879
 O         0.455070         0.704959         0.015712
 C        -1.582552        -0.863670         0.067110
 H        -4.000359        -1.785695         1.985809
 H        -2.504300        -0.286851         3.340609
 H        -1.051232        -1.253745         2.580886
 H        -0.976698         1.663519         2.312712
 H        -3.687673         1.336304         1.587522
 H        -2.541906         1.330682        -1.203865
 H        -1.751818         2.434251         0.075788
 H         0.759108        -0.216867        -0.166477
 H        -2.029524        -0.947825        -0.942493
 H        -0.906065        -1.702992         0.335002
