19
Iteration:  1519charge 0 multiplicity 1
 O        -3.847788        -1.412742         1.019855
 C        -2.721128        -0.629219         1.166483
 C        -1.863299        -0.529397         2.535780
 C        -1.383858         0.768921         1.822111
 C        -2.788123         0.943388         1.082301
 C        -2.097040         1.302724        -0.270456
 C        -0.896416         0.425271         0.318893
 O         0.352691         0.868738        -0.118378
 C        -1.547799        -0.946453         0.294584
 H        -4.590515        -0.733875         1.028729
 H        -2.503275        -0.307356         3.403458
 H        -1.274338        -1.464139         2.729630
 H        -0.936497         1.667568         2.373797
 H        -3.690786         1.498279         1.500766
 H        -2.710509         0.916137        -1.050694
 H        -1.886027         2.331788        -0.608503
 H         1.043545         0.377571         0.321749
 H        -1.727523        -1.382813        -0.702546
 H        -0.979640        -1.698189         0.848491
