19
Iteration:  1333
 O        -3.946911        -1.313228         0.923433
 C        -2.682064        -0.715482         1.180775
 C        -1.896024        -0.589995         2.622941
 C        -1.326955         0.724321         1.938750
 C        -2.736867         0.853941         1.091839
 C        -2.111609         1.304128        -0.141039
 C        -0.902047         0.453954         0.320671
 O         0.360513         0.912628        -0.162390
 C        -1.496371        -0.961352         0.186550
 H        -4.644502        -0.604290         1.160103
 H        -2.652341        -0.231673         3.251353
 H        -1.301955        -1.269083         3.194871
 H        -0.732409         1.491838         2.292664
 H        -3.593109         1.163045         1.645712
 H        -2.446512         1.222207        -1.128677
 H        -1.735427         2.301163        -0.017479
 H         0.343069         0.841480        -1.119962
 H        -1.873433        -1.088090        -0.788894
 H        -0.906198        -1.731598         0.595898
