19
Iteration:  1099charge 0 multiplicity 1
 O        -3.890473        -1.442961         1.171476
 C        -2.673232        -0.691756         1.080755
 C        -1.874399        -0.621045         2.378538
 C        -1.412546         0.707030         1.854509
 C        -2.790446         0.871016         1.165324
 C        -2.030337         1.537253        -0.022205
 C        -0.925227         0.546807         0.336269
 O         0.420194         0.666163        -0.113466
 C        -1.581781        -0.840785         0.043504
 H        -4.494587        -1.031233         0.578241
 H        -2.539943        -0.501361         3.253662
 H        -1.194914        -1.408162         2.688889
 H        -0.881072         1.518669         2.514176
 H        -3.696984         1.291110         1.592617
 H        -2.553454         1.405883        -1.004280
 H        -1.896067         2.600827         0.086943
 H         0.533896         1.643846        -0.232795
 H        -2.052476        -0.916654        -0.942540
 H        -0.989455        -1.767627         0.171782
