19
Iteration:   984charge 0 multiplicity 1
 O        -3.783614        -1.348718         0.936726
 C        -2.677073        -0.642131         1.232659
 C        -2.022736        -0.613917         2.580461
 C        -1.373789         0.691984         1.927631
 C        -2.705656         0.992603         1.249142
 C        -2.073696         1.362257        -0.139298
 C        -0.948570         0.471829         0.349550
 O         0.307060         0.756046        -0.398639
 C        -1.536820        -0.935199         0.283477
 H        -4.062529        -1.280042         0.052672
 H        -2.720350        -0.308519         3.379065
 H        -1.476124        -1.457746         3.049051
 H        -0.835360         1.322204         2.512163
 H        -3.571836         1.639018         1.616134
 H        -2.462101         1.159595        -1.101269
 H        -1.709631         2.416860        -0.208435
 H         0.497268         1.677305        -0.085649
 H        -1.801752        -1.388007        -0.704095
 H        -0.922787        -1.710129         0.741155
