19
Iteration:  1210charge 0 multiplicity 1
 O        -4.040752        -1.405802         1.322481
 C        -2.770365        -0.632593         1.044966
 C        -1.785958        -0.671576         2.297267
 C        -1.361835         0.643767         1.789871
 C        -2.769744         0.914415         1.086883
 C        -1.999498         1.541532        -0.129524
 C        -0.948311         0.539122         0.322839
 O         0.462794         0.786138         0.083104
 C        -1.662705        -0.883346        -0.136276
 H        -3.607849        -2.262801         1.652345
 H        -2.198266        -0.704979         3.289191
 H        -0.994884        -1.405855         2.279504
 H        -0.767319         1.367733         2.505117
 H        -3.670585         1.440641         1.530322
 H        -2.521508         1.392899        -1.057910
 H        -1.789414         2.564986        -0.023167
 H         0.682893         1.379144         0.805388
 H        -2.026024        -1.003399        -1.146930
 H        -1.038371        -1.745720         0.036631
