19
Iteration:   861
 O        -3.695125        -1.594078         1.101010
 C        -2.739299        -0.620736         1.158773
 C        -1.853612        -0.520977         2.547748
 C        -1.493894         0.828523         1.866236
 C        -2.862976         0.998137         1.102150
 C        -1.921769         1.577254        -0.157615
 C        -0.971359         0.549230         0.376492
 O         0.313819         0.534592        -0.106923
 C        -1.675524        -0.783744         0.030735
 H        -4.021206        -1.576894         0.201822
 H        -2.395941        -0.247779         3.504589
 H        -1.031961        -1.266048         2.675925
 H        -1.071877         1.772351         2.413618
 H        -3.722169         1.365472         1.633809
 H        -2.235017         1.314970        -1.183027
 H        -1.700274         2.608118        -0.068956
 H         0.729472        -0.319448         0.154410
 H        -1.979943        -0.936433        -1.044262
 H        -1.002202        -1.578238         0.386921
