19
Iteration:  2065
 O        -3.897165        -1.485254         1.301002
 C        -2.729099        -0.709483         1.144633
 C        -1.861448        -0.485466         2.419115
 C        -1.457083         0.810289         1.722083
 C        -2.819245         0.970701         0.947004
 C        -1.983138         1.505209        -0.285685
 C        -0.925073         0.494160         0.304133
 O         0.402186         0.657011         0.108916
 C        -1.640547        -0.869013         0.032232
 H        -3.522245        -2.361166         1.396652
 H        -2.496271        -0.221706         3.275256
 H        -1.187006        -1.327649         2.727822
 H        -0.976009         1.605336         2.309438
 H        -3.614251         1.569573         1.275582
 H        -2.297128         1.280404        -1.270954
 H        -1.753828         2.546563        -0.005586
 H         0.906393         0.504066         0.926913
 H        -2.036228        -0.753770        -1.031106
 H        -0.875144        -1.666827         0.108445
