19
Iteration:  1524
 O        -3.825153        -1.492998         1.046664
 C        -2.725290        -0.611997         1.152066
 C        -1.892805        -0.498519         2.524485
 C        -1.390483         0.767747         1.836129
 C        -2.809088         0.945553         1.077974
 C        -2.043948         1.365736        -0.257086
 C        -0.887366         0.452163         0.341051
 O         0.359527         0.830089        -0.147055
 C        -1.590900        -0.920394         0.265868
 H        -4.562828        -0.879552         1.113022
 H        -2.536682        -0.346257         3.405726
 H        -1.253468        -1.328529         2.817439
 H        -0.963090         1.615051         2.349907
 H        -3.656965         1.540650         1.426704
 H        -2.693069         1.014618        -1.129195
 H        -1.800478         2.418502        -0.482784
 H         0.974417         0.224130         0.359731
 H        -1.772825        -1.458573        -0.677420
 H        -0.955330        -1.674454         0.801107
