19
Iteration:  1021charge 0 multiplicity 1
 O        -3.809462        -1.574057         1.216247
 C        -2.693495        -0.727889         1.133484
 C        -1.924488        -0.577779         2.449020
 C        -1.421702         0.752443         1.827224
 C        -2.783281         0.977556         1.092199
 C        -2.018656         1.627473        -0.073297
 C        -0.975184         0.623007         0.351644
 O         0.427224         0.539165        -0.212087
 C        -1.690742        -0.778012         0.075568
 H        -4.010650        -1.788720         0.285374
 H        -2.628516        -0.246177         3.236553
 H        -1.219562        -1.367789         2.774262
 H        -1.002767         1.616900         2.485748
 H        -3.627574         1.331256         1.608904
 H        -2.320028         1.574257        -1.153346
 H        -1.684938         2.652266         0.239431
 H         0.983827         0.936901         0.513145
 H        -2.105711        -0.809178        -0.947881
 H        -0.930098        -1.594349         0.291120
