19
Iteration:  4353
 O        -3.927028        -1.536332         1.241855
 C        -2.739139        -0.696660         1.103703
 C        -1.882880        -0.548172         2.485008
 C        -1.470342         0.782164         1.807832
 C        -2.840206         0.966098         0.956783
 C        -1.855984         1.587716        -0.204602
 C        -0.932208         0.533253         0.416822
 O         0.420096         0.571253         0.040151
 C        -1.636338        -0.857906         0.000520
 H        -4.345066        -1.158079         0.440848
 H        -2.511506        -0.494235         3.370345
 H        -1.022923        -1.273679         2.563880
 H        -1.300448         1.708406         2.405444
 H        -3.729435         1.441414         1.271152
 H        -1.906039         1.532565        -1.322820
 H        -1.615600         2.626671        -0.062676
 H         0.985036         0.605006         0.868136
 H        -1.982393        -0.517226        -1.076884
 H        -0.931116        -1.720908        -0.081489
