19
Iteration:  1905charge 0 multiplicity 1
 O        -3.913479        -1.354219         1.356087
 C        -2.666856        -0.712425         1.113524
 C        -1.646904        -0.627550         2.292923
 C        -1.496348         0.810876         1.752191
 C        -2.834406         0.851055         0.971179
 C        -2.080451         1.515624        -0.309913
 C        -0.954402         0.533413         0.368494
 O         0.401432         0.632662         0.242915
 C        -1.659975        -0.839017        -0.047087
 H        -4.387819        -1.414661         0.518623
 H        -2.076479        -0.617038         3.307665
 H        -0.837842        -1.348983         2.339642
 H        -0.929913         1.589066         2.221942
 H        -3.676499         1.243559         1.479691
 H        -2.407927         1.179936        -1.305384
 H        -1.811439         2.567150        -0.275750
 H         0.879640         1.080260         0.988869
 H        -2.264193        -0.911671        -0.914159
 H        -0.977384        -1.688659         0.044447
