19
Iteration:  1978
 O        -3.856032        -1.464517         0.925996
 C        -2.715393        -0.588943         1.170544
 C        -2.149383        -0.432459         2.610592
 C        -1.556246         0.830727         1.978112
 C        -2.787437         0.981507         1.151430
 C        -1.900019         1.387522        -0.098211
 C        -0.820946         0.424650         0.326054
 O         0.373156         0.775292        -0.418817
 C        -1.471310        -0.981139         0.318434
 H        -3.713375        -2.282730         1.518923
 H        -2.893041        -0.263410         3.380634
 H        -1.501563        -1.159049         3.097666
 H        -1.050559         1.674016         2.477133
 H        -3.676276         1.400476         1.549798
 H        -2.222619         1.189872        -1.113797
 H        -1.560349         2.462337        -0.132840
 H         0.890363         0.046327        -0.768730
 H        -1.583102        -1.211811        -0.748333
 H        -0.910872        -1.761444         0.798703
