19
Iteration:  4477
 O        -3.811307        -1.527465         1.182617
 C        -2.828760        -0.589459         1.168708
 C        -1.996459        -0.556019         2.418471
 C        -1.422366         0.688532         1.748953
 C        -2.782635         1.051866         1.000329
 C        -1.995842         1.507245        -0.234124
 C        -0.903797         0.491144         0.330556
 O         0.554220         0.682457         0.139073
 C        -1.689397        -0.835072         0.133361
 H        -4.095549        -1.489082         0.226075
 H        -2.552882        -0.512811         3.404373
 H        -1.358407        -1.409447         2.538290
 H        -0.883719         1.475297         2.308406
 H        -3.679033         1.566418         1.530819
 H        -2.513366         1.472067        -1.139509
 H        -1.577612         2.525101         0.035523
 H         0.674022        -0.041334        -0.571342
 H        -2.160951        -0.915877        -0.889825
 H        -1.053965        -1.727955         0.300984
