19
Iteration:  3927charge 0 multiplicity 1
 O        -3.904743        -1.250252         0.881019
 C        -2.678242        -0.670038         1.119127
 C        -1.925793        -0.618579         2.484421
 C        -1.465409         0.736470         1.938454
 C        -2.736008         0.995028         1.122142
 C        -2.038923         1.397797        -0.166448
 C        -0.912147         0.433123         0.355901
 O         0.314690         0.823098        -0.131676
 C        -1.475337        -1.020342         0.213681
 H        -4.263614        -1.102142         1.744214
 H        -2.672948        -0.512051         3.307451
 H        -1.220411        -1.357849         2.918899
 H        -0.748807         1.176428         2.656795
 H        -3.747472         1.271136         1.435035
 H        -2.422369         1.198575        -1.186776
 H        -1.559858         2.332634        -0.004464
 H         0.877946         0.269393         0.381325
 H        -1.788358        -1.010737        -0.867081
 H        -0.986558        -1.940790         0.473217
