19
Iteration:  2853
 O        -3.916348        -1.416598         1.141861
 C        -2.721971        -0.614083         1.079664
 C        -1.977629        -0.558987         2.398146
 C        -1.430177         0.716870         1.812913
 C        -2.769311         0.978835         1.153835
 C        -2.010241         1.448519        -0.095464
 C        -0.897941         0.517611         0.381359
 O         0.414127         0.675876        -0.110883
 C        -1.510450        -0.938771         0.143948
 H        -4.081037        -1.999427         0.373545
 H        -2.650028        -0.296512         3.227277
 H        -1.334520        -1.369538         2.743070
 H        -0.923052         1.514559         2.350727
 H        -3.591909         1.423066         1.679016
 H        -2.400783         1.340335        -1.100007
 H        -1.760055         2.488627         0.084561
 H         0.434436         1.637078        -0.291125
 H        -1.702058        -1.155205        -0.940542
 H        -0.894481        -1.814529         0.559953
