19
Iteration:  3553
 O        -3.766040        -1.518959         1.212669
 C        -2.783355        -0.613247         1.079600
 C        -1.950771        -0.466747         2.434628
 C        -1.497584         0.797401         1.846632
 C        -2.876473         0.932027         1.000314
 C        -1.930567         1.549708        -0.136847
 C        -0.915505         0.509384         0.368681
 O         0.418900         0.509967        -0.064294
 C        -1.574569        -0.863921         0.077859
 H        -4.631006        -1.237926         0.788072
 H        -2.538302        -0.228916         3.295362
 H        -1.199219        -1.240681         2.470540
 H        -1.302021         1.650190         2.395338
 H        -3.903691         1.344887         1.158413
 H        -2.120919         1.707019        -1.191264
 H        -1.698852         2.501634         0.268714
 H         1.148326         0.722424         0.551014
 H        -1.557074        -0.938648        -1.053087
 H        -1.046884        -1.763775         0.565201
