19
Iteration:  4966charge 0 multiplicity 1
 O        -3.885602        -1.488209         1.074017
 C        -2.687788        -0.614814         1.056117
 C        -1.890035        -0.578880         2.394178
 C        -1.515232         0.787915         1.898232
 C        -2.845109         1.011790         1.036408
 C        -1.899273         1.551869        -0.093933
 C        -0.859163         0.449574         0.344614
 O         0.368619         0.534953         0.020508
 C        -1.591844        -0.841883         0.041352
 H        -4.155435        -1.359157         2.000306
 H        -2.479284        -0.648857         3.313673
 H        -1.169956        -1.362227         2.349183
 H        -1.025006         1.595011         2.356232
 H        -3.830235         1.374209         1.495417
 H        -2.420159         1.615189        -1.009606
 H        -1.543616         2.500024         0.310475
 H         0.606503         1.513014        -0.023439
 H        -1.916718        -0.880975        -1.036589
 H        -1.084114        -1.772968         0.274729
