19
Iteration:  2713
 O        -3.957319        -1.340551         1.178087
 C        -2.671981        -0.698524         1.096566
 C        -1.870427        -0.654384         2.406497
 C        -1.508642         0.700875         1.912958
 C        -2.792916         0.952061         1.012656
 C        -2.047666         1.602454        -0.152845
 C        -0.937177         0.521607         0.262555
 O         0.463690         0.670407        -0.036324
 C        -1.530794        -0.901041         0.073379
 H        -3.769374        -2.274286         1.516650
 H        -2.561686        -0.757631         3.284177
 H        -1.080812        -1.409211         2.529172
 H        -0.900449         1.436368         2.368440
 H        -3.661069         1.314617         1.435221
 H        -2.629662         1.356153        -1.080205
 H        -1.809932         2.657533         0.114222
 H         0.747586         1.317764         0.638636
 H        -2.009565        -0.865238        -0.924630
 H        -0.865830        -1.806832         0.175851
