19
Iteration:  2851charge 0 multiplicity 1
 O        -3.935130        -1.400732         1.146351
 C        -2.709991        -0.614567         1.079373
 C        -1.971882        -0.580891         2.392540
 C        -1.440770         0.717625         1.818079
 C        -2.781352         0.964988         1.136325
 C        -2.001090         1.462046        -0.075253
 C        -0.889765         0.531743         0.380985
 O         0.406500         0.681753        -0.130935
 C        -1.488392        -0.950795         0.147688
 H        -4.048213        -1.963323         0.409557
 H        -2.685145        -0.357659         3.183235
 H        -1.308167        -1.370694         2.784430
 H        -0.930010         1.563974         2.371483
 H        -3.708512         1.404966         1.644023
 H        -2.354455         1.318801        -1.064720
 H        -1.716000         2.472476         0.146441
 H         0.475935         1.603353        -0.375796
 H        -1.662985        -1.252070        -0.892928
 H        -0.957603        -1.760029         0.664173
