19
Iteration:  2219
 O        -3.729225        -1.611390         1.240687
 C        -2.741014        -0.645271         1.169612
 C        -2.030305        -0.456347         2.471460
 C        -1.419770         0.793322         1.781881
 C        -2.796500         1.052325         1.022383
 C        -1.988160         1.532462        -0.259278
 C        -0.959205         0.473422         0.348135
 O         0.400163         0.653999         0.017390
 C        -1.666400        -0.849868         0.057236
 H        -3.858505        -2.234561         0.461788
 H        -2.647058        -0.052936         3.272777
 H        -1.242722        -1.155318         2.784535
 H        -0.795500         1.618362         2.239365
 H        -3.613247         1.602762         1.534481
 H        -2.344378         1.434659        -1.283555
 H        -1.526396         2.520738        -0.254062
 H         0.789801        -0.147374         0.431424
 H        -2.133460        -0.920289        -0.953674
 H        -0.900849        -1.629556         0.220478
