19
Iteration:  1459
 O        -3.862315        -1.416407         0.933511
 C        -2.686471        -0.658133         1.271350
 C        -1.950124        -0.454823         2.506225
 C        -1.356690         0.789947         1.862503
 C        -2.792326         0.943948         1.077011
 C        -2.051214         1.288209        -0.181073
 C        -0.944253         0.445872         0.287177
 O         0.322176         0.857260        -0.194724
 C        -1.499939        -0.982983         0.304205
 H        -4.640521        -0.993439         1.308580
 H        -2.475262        -0.310866         3.483908
 H        -1.363940        -1.384168         2.702791
 H        -0.850316         1.570796         2.451146
 H        -3.584258         1.554065         1.469414
 H        -2.498238         0.925147        -1.172328
 H        -1.793478         2.369751        -0.178208
 H         1.121105         0.485746         0.215903
 H        -1.846795        -1.438496        -0.660662
 H        -0.807264        -1.771726         0.689247
