19
Iteration:  2657charge 0 multiplicity 1
 O        -3.820847        -1.266003         0.898113
 C        -2.643865        -0.621990         1.186587
 C        -1.966112        -0.648573         2.570918
 C        -1.489183         0.809431         2.057152
 C        -2.769054         0.916708         1.205461
 C        -2.081592         1.408890        -0.098617
 C        -0.926757         0.554403         0.364909
 O         0.359957         0.567765        -0.303021
 C        -1.506324        -0.901912         0.197410
 H        -3.510460        -1.830415         0.218464
 H        -2.723837        -0.543623         3.368621
 H        -1.286859        -1.497592         2.777991
 H        -1.058604         1.616282         2.638727
 H        -3.564868         1.348069         1.789115
 H        -2.575397         1.273203        -1.099882
 H        -1.860276         2.512528        -0.117226
 H         0.480412         1.343879        -0.848408
 H        -1.776946        -0.957985        -0.888621
 H        -0.906193        -1.776596         0.504781
