19
Iteration:   494
 O        -3.934599        -1.276664         0.974609
 C        -2.682545        -0.684374         1.192887
 C        -1.854574        -0.651549         2.502210
 C        -1.367092         0.709154         1.909404
 C        -2.743638         0.891783         1.188626
 C        -2.069870         1.381358        -0.113741
 C        -0.931231         0.486061         0.336895
 O         0.337147         0.822833        -0.140042
 C        -1.551965        -0.878620         0.135445
 H        -3.928507        -2.257106         0.719986
 H        -2.428544        -0.418646         3.430832
 H        -1.149499        -1.473647         2.701498
 H        -0.923673         1.595415         2.441542
 H        -3.643399         1.385915         1.754638
 H        -2.536410         1.144349        -1.067977
 H        -1.717516         2.414141        -0.058998
 H         0.418229         0.924800        -1.103193
 H        -2.029536        -0.969273        -0.822943
 H        -0.844895        -1.602114         0.504155
