19
Iteration:   283charge 0 multiplicity 1
 O        -3.878829        -1.374823         0.897884
 C        -2.679739        -0.605678         1.215061
 C        -1.965242        -0.644206         2.620058
 C        -1.316927         0.712889         1.955448
 C        -2.707502         0.934200         1.215297
 C        -2.060920         1.404748        -0.069937
 C        -0.919291         0.469020         0.329474
 O         0.253491         0.750323        -0.340843
 C        -1.487765        -0.898027         0.217937
 H        -4.165925        -1.331731        -0.057665
 H        -2.558702        -0.294745         3.483841
 H        -1.450881        -1.591102         2.964382
 H        -0.725597         1.343825         2.552488
 H        -3.579618         1.408477         1.638254
 H        -2.619191         1.149396        -1.096026
 H        -1.860322         2.474259        -0.035341
 H         0.432763         1.697731        -0.353444
 H        -1.772152        -1.208704        -0.846414
 H        -0.798480        -1.614057         0.703204
