19
Iteration:  3650
 O        -3.979836        -1.198205         1.014373
 C        -2.696521        -0.700107         1.107431
 C        -1.971996        -0.570034         2.440573
 C        -1.403935         0.819985         1.825803
 C        -2.768220         0.792415         1.073302
 C        -2.065994         1.388492        -0.140747
 C        -0.894159         0.556299         0.407218
 O         0.444754         0.722732        -0.023101
 C        -1.484536        -0.975438         0.138186
 H        -4.146687        -2.059981         1.516666
 H        -2.549430        -0.028445         3.226665
 H        -1.375780        -1.388306         2.948517
 H        -1.059455         1.490724         2.514784
 H        -3.641980         1.202083         1.573572
 H        -2.442443         1.315076        -1.191548
 H        -1.759690         2.393884         0.316386
 H         0.637667         0.399014        -0.936932
 H        -1.580490        -1.119695        -0.961152
 H        -0.849196        -1.805688         0.579509
