19
Iteration:  4055charge 0 multiplicity 1
 O        -3.956531        -1.283490         0.993667
 C        -2.770238        -0.627757         1.056433
 C        -1.916656        -0.646895         2.427629
 C        -1.378179         0.657394         1.900314
 C        -2.702144         0.955179         1.148881
 C        -1.940633         1.461721        -0.105771
 C        -0.965703         0.463713         0.336866
 O         0.350401         0.787707        -0.024344
 C        -1.565548        -0.909843         0.080314
 H        -3.676256        -2.118227         1.489176
 H        -2.646423        -0.518691         3.267498
 H        -1.135159        -1.436906         2.530716
 H        -0.774085         1.440100         2.267880
 H        -3.668014         1.432280         1.363179
 H        -2.408741         1.373622        -1.150986
 H        -1.695126         2.519545         0.022117
 H         0.885040         0.503606         0.793747
 H        -2.100898        -1.172859        -0.915320
 H        -0.971268        -1.800719         0.351458
