19
Iteration:   473charge 0 multiplicity 1
 O        -3.897940        -1.375499         0.871154
 C        -2.686124        -0.609842         1.146484
 C        -1.996358        -0.562094         2.573524
 C        -1.283637         0.668266         1.956608
 C        -2.634351         0.983654         1.273483
 C        -2.130386         1.434613        -0.063668
 C        -0.936676         0.453512         0.377403
 O         0.291530         0.786009        -0.317057
 C        -1.483964        -0.993884         0.225899
 H        -3.693317        -1.985994         0.171653
 H        -2.664928        -0.213022         3.377714
 H        -1.437879        -1.434247         2.920916
 H        -0.599963         1.332157         2.561927
 H        -3.647411         1.453664         1.715960
 H        -2.615005         1.128813        -0.969195
 H        -1.823645         2.512033        -0.019920
 H        -0.043053         1.537084        -0.872792
 H        -1.817214        -1.152003        -0.753498
 H        -0.887987        -1.716091         0.791058
