19
Iteration:   771charge 0 multiplicity 1
 O        -3.936477        -1.430670         0.997576
 C        -2.721155        -0.625442         1.196561
 C        -1.860269        -0.594617         2.478222
 C        -1.430854         0.783206         1.841615
 C        -2.756490         0.913680         1.107418
 C        -2.025255         1.388705        -0.180351
 C        -0.886020         0.464517         0.310767
 O         0.386858         0.820469        -0.109615
 C        -1.585788        -0.866713         0.145000
 H        -4.321019        -1.535171         1.849064
 H        -2.535609        -0.535168         3.380059
 H        -1.016560        -1.308792         2.732773
 H        -0.997652         1.597645         2.523212
 H        -3.604943         1.447776         1.513519
 H        -2.529801         1.194673        -1.121010
 H        -1.843511         2.448983        -0.080051
 H         1.045356         0.207138         0.240187
 H        -1.994951        -1.053327        -0.843793
 H        -0.970759        -1.734490         0.466767
