19
Iteration:  3409charge 0 multiplicity 1
 O        -3.775599        -1.537582         1.078156
 C        -2.701426        -0.647758         1.208858
 C        -1.921382        -0.511337         2.481829
 C        -1.438936         0.773077         1.767675
 C        -2.810874         1.100356         1.112563
 C        -2.006593         1.537334        -0.215053
 C        -0.952522         0.441131         0.297236
 O         0.410393         0.632139         0.016827
 C        -1.641092        -0.879417         0.114642
 H        -4.093127        -1.714552         0.167161
 H        -2.560535        -0.361305         3.430101
 H        -1.328807        -1.467629         2.533795
 H        -1.033434         1.651950         2.370596
 H        -3.574968         1.807173         1.576578
 H        -2.355900         1.476594        -1.233901
 H        -1.711258         2.606479        -0.114931
 H         0.754002         0.120098         0.824301
 H        -2.242718        -0.987288        -0.857312
 H        -1.083400        -1.887016         0.244955
