19
Iteration:  1187charge 0 multiplicity 1
 O        -3.911385        -1.255979         1.024521
 C        -2.611751        -0.718232         1.175429
 C        -1.799874        -0.670429         2.422715
 C        -1.379641         0.734927         1.860275
 C        -2.822643         0.825841         1.198239
 C        -2.114679         1.490300        -0.104165
 C        -0.998669         0.535594         0.350196
 O         0.435804         0.630895        -0.077629
 C        -1.634809        -0.818026         0.015652
 H        -3.957723        -2.189917         1.032141
 H        -2.341932        -0.541319         3.364957
 H        -1.033117        -1.393229         2.672785
 H        -0.935485         1.676245         2.441905
 H        -3.612884         1.297609         1.818041
 H        -2.578740         1.543774        -1.078539
 H        -1.888280         2.496175         0.167032
 H         0.556822         1.609197         0.039098
 H        -2.039608        -0.856248        -1.001329
 H        -0.966982        -1.683430         0.041512
