19
Iteration:  2331charge 0 multiplicity 1
 O        -3.946675        -1.400982         0.959481
 C        -2.768173        -0.662126         1.223894
 C        -1.978340        -0.522556         2.539851
 C        -1.305499         0.764109         1.812368
 C        -2.676685         0.932654         1.167544
 C        -2.047510         1.348667        -0.264789
 C        -0.869643         0.430096         0.343458
 O         0.326713         0.925109        -0.063501
 C        -1.525984        -1.037151         0.293564
 H        -4.073279        -1.072590         0.057749
 H        -2.617135        -0.084322         3.315877
 H        -1.449356        -1.354772         3.017059
 H        -0.600070         1.521513         2.329166
 H        -3.522687         1.491212         1.731364
 H        -2.535262         0.954699        -1.152881
 H        -1.855867         2.383755        -0.502145
 H         0.666822         0.292045        -0.695356
 H        -1.980190        -1.211334        -0.700624
 H        -0.805921        -1.825052         0.551522
