19
Iteration:  4574
 O        -3.810642        -1.374703         1.007125
 C        -2.692543        -0.632359         1.129278
 C        -2.069147        -0.527285         2.584431
 C        -1.380349         0.725863         1.930768
 C        -2.612543         1.022817         1.095567
 C        -1.992397         1.411701        -0.167850
 C        -0.966948         0.396837         0.376825
 O         0.350655         0.759736        -0.033618
 C        -1.630278        -0.961083         0.090780
 H        -3.974850        -1.625130         0.068215
 H        -2.879711        -0.137559         3.210307
 H        -1.609187        -1.403611         2.985249
 H        -0.799754         1.546205         2.402288
 H        -3.469814         1.675679         1.463888
 H        -2.478674         1.094201        -1.095091
 H        -1.424115         2.403576        -0.067471
 H         0.495733         0.621104        -1.012327
 H        -2.192140        -1.341177        -0.834166
 H        -0.925778        -1.708466         0.506933
