19
Iteration:  4072
 O        -3.997576        -1.216890         0.918336
 C        -2.638078        -0.696739         1.150797
 C        -1.958339        -0.677029         2.511395
 C        -1.432474         0.717188         1.900648
 C        -2.797149         0.924703         1.125153
 C        -2.056801         1.481358        -0.070912
 C        -0.853262         0.490853         0.369055
 O         0.410679         0.743694        -0.177555
 C        -1.518640        -0.944806         0.121956
 H        -4.268926        -2.198424         0.856338
 H        -2.538355        -0.357605         3.392654
 H        -1.216388        -1.461079         2.671817
 H        -1.092527         1.495511         2.690703
 H        -3.551947         1.351392         1.800564
 H        -2.535504         1.467337        -1.017841
 H        -1.636374         2.516325         0.055846
 H         1.166934         0.528579         0.464865
 H        -1.676840        -0.944699        -0.897358
 H        -0.959912        -1.843177         0.490587
