19
Iteration:  2049charge 0 multiplicity 1
 O        -3.849377        -1.445280         1.088809
 C        -2.746114        -0.589282         1.197274
 C        -1.836844        -0.484771         2.491471
 C        -1.423346         0.839352         1.748285
 C        -2.781377         0.989269         1.047586
 C        -2.056073         1.352699        -0.294700
 C        -0.950090         0.462123         0.340060
 O         0.469211         0.737403         0.063419
 C        -1.718627        -0.909555         0.101235
 H        -3.681357        -2.418089         0.992231
 H        -2.339701        -0.464727         3.483432
 H        -0.953881        -1.167904         2.616613
 H        -0.907352         1.698683         2.248733
 H        -3.666610         1.486768         1.586606
 H        -2.503522         1.078235        -1.310201
 H        -1.734101         2.386811        -0.451195
 H         0.771276         0.403895         0.907107
 H        -2.275506        -1.187604        -0.784334
 H        -1.229485        -1.877844         0.370696
