19
Iteration:   366
 O        -3.889277        -1.493004         1.311190
 C        -2.704017        -0.672614         1.106190
 C        -1.809035        -0.614656         2.326350
 C        -1.374676         0.740043         1.787253
 C        -2.792715         0.970134         1.129455
 C        -2.033722         1.475321        -0.121286
 C        -0.992812         0.502891         0.276967
 O         0.441768         0.677214         0.123198
 C        -1.713377        -0.779023        -0.099793
 H        -4.225434        -1.907335         0.548652
 H        -2.355397        -0.690995         3.251996
 H        -1.007167        -1.354104         2.247705
 H        -0.705758         1.393344         2.381736
 H        -3.666858         1.499939         1.588573
 H        -2.584576         1.503467        -1.038706
 H        -1.565468         2.503324         0.102884
 H         0.722453         1.612486         0.045645
 H        -2.089312        -0.780589        -1.106710
 H        -1.071445        -1.678688        -0.146972
