19
Iteration:  3679charge 0 multiplicity 1
 O        -3.869623        -1.484000         0.989720
 C        -2.755227        -0.607959         1.142596
 C        -1.921514        -0.579654         2.507040
 C        -1.428986         0.788584         1.848943
 C        -2.748650         1.071382         1.084128
 C        -2.009955         1.477533        -0.250854
 C        -0.959128         0.486527         0.356121
 O         0.410919         0.659729         0.059204
 C        -1.628518        -0.843724         0.070400
 H        -3.995616        -2.005882         1.769697
 H        -2.380424        -0.391775         3.508356
 H        -1.127373        -1.314025         2.725028
 H        -0.644965         1.351661         2.522420
 H        -3.665356         1.597575         1.436127
 H        -2.492911         1.135857        -1.169852
 H        -1.620583         2.521977        -0.071819
 H         0.923745        -0.058960        -0.252482
 H        -1.856255        -0.856024        -0.991466
 H        -1.134691        -1.777721         0.308195
