19
Iteration:  4266charge 0 multiplicity 1
 O        -3.979390        -1.332385         0.951105
 C        -2.768344        -0.614347         1.096032
 C        -2.006426        -0.605294         2.557003
 C        -1.492759         0.675712         1.951102
 C        -2.729641         0.974060         1.089849
 C        -1.942109         1.513037        -0.090174
 C        -0.914788         0.505874         0.360957
 O         0.493185         0.645231        -0.195254
 C        -1.504661        -0.926242         0.278941
 H        -3.759435        -2.175352         0.439630
 H        -2.674741        -0.582983         3.407704
 H        -1.179988        -1.313657         2.832329
 H        -1.099902         1.579237         2.503532
 H        -3.612355         1.363382         1.508500
 H        -2.357469         1.422513        -1.123871
 H        -1.756591         2.527771         0.251757
 H         0.274474         1.326574        -0.923453
 H        -1.594247        -1.133477        -0.836666
 H        -0.908822        -1.771811         0.593466
