19
Iteration:   173
 O        -3.764573        -1.562730         1.081427
 C        -2.675561        -0.634371         1.230764
 C        -2.014692        -0.512814         2.555575
 C        -1.394727         0.841207         1.816699
 C        -2.806595         0.989409         1.116485
 C        -2.071134         1.503555        -0.125519
 C        -0.934449         0.518528         0.325023
 O         0.357913         0.522812        -0.230908
 C        -1.546858        -0.824008         0.152799
 H        -4.005923        -1.505861         0.122363
 H        -2.777710        -0.246287         3.298240
 H        -1.290852        -1.320795         2.829212
 H        -1.106155         1.666660         2.459434
 H        -3.579774         1.501087         1.562389
 H        -2.618875         1.383688        -1.157536
 H        -1.812560         2.490205         0.161995
 H         0.967569         0.953275         0.417591
 H        -1.999194        -0.870843        -0.860749
 H        -0.691936        -1.483755         0.365479
