19
Iteration:   220
 O        -3.697367        -1.642047         1.382016
 C        -2.708451        -0.739687         1.112038
 C        -1.788265        -0.591076         2.298024
 C        -1.513579         0.864098         1.745974
 C        -2.780871         1.039532         1.050079
 C        -2.023669         1.686484        -0.210026
 C        -0.983702         0.550724         0.299887
 O         0.407509         0.463351         0.206518
 C        -1.789978        -0.753482        -0.093145
 H        -4.224713        -1.910686         0.532038
 H        -2.396395        -0.503983         3.183910
 H        -1.077745        -1.387915         2.299187
 H        -0.882881         1.637180         2.184738
 H        -3.697221         1.543430         1.573304
 H        -2.296930         1.565355        -1.230364
 H        -1.475806         2.628351         0.009838
 H         0.731535         1.380582         0.342930
 H        -2.456301        -0.588202        -0.900782
 H        -1.271141        -1.680208        -0.156132
