19
Iteration:  4600charge 0 multiplicity 1
 O        -3.984935        -1.427339         1.025065
 C        -2.772841        -0.688557         1.189934
 C        -1.946856        -0.533398         2.472522
 C        -1.384590         0.775547         1.801780
 C        -2.813233         1.000711         1.099966
 C        -2.061494         1.455989        -0.109925
 C        -0.936305         0.566792         0.390527
 O         0.561033         0.619084        -0.040446
 C        -1.515618        -0.898523         0.176880
 H        -3.985879        -1.553775         0.053995
 H        -2.562623        -0.092680         3.264507
 H        -1.328731        -1.392436         2.749551
 H        -0.933065         1.519500         2.426529
 H        -3.698267         1.558535         1.450855
 H        -2.540017         1.203955        -1.036141
 H        -1.710944         2.443890         0.013471
 H         0.601278         0.442615        -1.010135
 H        -1.838541        -1.168639        -0.839423
 H        -0.800808        -1.652548         0.594093
