19
Iteration:   663
 O        -3.907003        -1.281272         1.075104
 C        -2.682967        -0.690105         1.135790
 C        -1.826441        -0.615271         2.466401
 C        -1.400678         0.743703         1.770910
 C        -2.756289         0.861348         1.145597
 C        -2.183580         1.323612        -0.171694
 C        -0.950587         0.453488         0.294964
 O         0.452547         0.886099         0.032518
 C        -1.528389        -1.001044         0.147030
 H        -4.566347        -0.565214         0.866852
 H        -2.360277        -0.303819         3.360480
 H        -1.140381        -1.359717         2.843477
 H        -0.985076         1.605793         2.362506
 H        -3.586786         1.340825         1.575868
 H        -2.823959         1.106030        -1.041238
 H        -1.873709         2.346624        -0.150820
 H         0.564406         0.892015        -0.926184
 H        -1.876293        -1.289670        -0.823464
 H        -0.879665        -1.838075         0.420056
