19
Iteration:  4211charge 0 multiplicity 1
 O        -3.934317        -1.463396         0.871774
 C        -2.776462        -0.616279         1.200558
 C        -1.859754        -0.610565         2.453529
 C        -1.370917         0.759468         1.825793
 C        -2.757337         0.998138         1.186140
 C        -2.049485         1.460663        -0.172700
 C        -0.952353         0.529196         0.287905
 O         0.543255         0.687649         0.148582
 C        -1.663838        -0.866780         0.069219
 H        -4.450448        -1.555868         1.683381
 H        -2.417826        -0.279501         3.313891
 H        -1.245480        -1.539540         2.574921
 H        -0.778345         1.493272         2.412782
 H        -3.614409         1.345808         1.724317
 H        -2.521341         1.423018        -1.190990
 H        -1.884324         2.519904        -0.112013
 H         0.764349         0.112593        -0.615607
 H        -2.198313        -0.749371        -0.911946
 H        -0.982144        -1.683347         0.261803
