19
Iteration:  1025charge 0 multiplicity 1
 O        -3.783897        -1.549134         1.246925
 C        -2.687898        -0.711421         1.157752
 C        -1.904396        -0.586113         2.430248
 C        -1.450520         0.720170         1.809074
 C        -2.821956         0.967704         1.066776
 C        -2.015789         1.647536        -0.064543
 C        -0.973804         0.605673         0.300866
 O         0.434433         0.511515        -0.151047
 C        -1.687608        -0.735599         0.049736
 H        -4.006527        -1.804895         0.311238
 H        -2.524020        -0.345107         3.320707
 H        -1.221091        -1.372508         2.740330
 H        -1.023295         1.605410         2.396010
 H        -3.732863         1.262750         1.660581
 H        -2.393049         1.594392        -1.134919
 H        -1.742516         2.681650         0.130686
 H         0.980035         0.868724         0.545103
 H        -2.112965        -0.812220        -0.948839
 H        -0.879790        -1.462416         0.118855
