19
Iteration:  1354charge 0 multiplicity 1
 O        -3.874628        -1.408958         1.083272
 C        -2.706603        -0.638329         1.187137
 C        -1.819196        -0.554435         2.421361
 C        -1.424704         0.751438         1.790773
 C        -2.773591         0.925244         1.106753
 C        -2.104612         1.401582        -0.210897
 C        -0.930873         0.528637         0.309553
 O         0.435649         0.741600         0.119164
 C        -1.590298        -0.978467         0.050459
 H        -4.537964        -1.046434         1.654217
 H        -2.217387        -0.339577         3.368062
 H        -1.044755        -1.294727         2.455228
 H        -1.027703         1.619726         2.218665
 H        -3.588252         1.383020         1.649936
 H        -2.539898         1.123565        -1.134703
 H        -2.037370         2.453975        -0.181862
 H         0.427731         0.927338        -0.852470
 H        -2.000287        -1.071917        -0.925304
 H        -0.958298        -1.788768         0.325817
