19
Iteration:  4456charge 0 multiplicity 1
 O        -3.967012        -1.459298         1.060713
 C        -2.729345        -0.641737         1.103546
 C        -1.980988        -0.558628         2.504057
 C        -1.410784         0.802270         1.898253
 C        -2.749601         0.932122         1.089457
 C        -2.002687         1.525535        -0.183219
 C        -0.915664         0.535454         0.309891
 O         0.447823         0.637418        -0.010450
 C        -1.514498        -0.854454         0.149980
 H        -4.071899        -1.750121         0.166731
 H        -2.711456        -0.108101         3.292265
 H        -1.386066        -1.398320         2.925631
 H        -0.918224         1.584774         2.479049
 H        -3.613523         1.485660         1.658368
 H        -2.251045         1.224917        -1.172743
 H        -1.753030         2.596785        -0.011322
 H         0.609212        -0.076461        -0.604958
 H        -1.897285        -1.143487        -0.826582
 H        -0.809507        -1.629753         0.502934
