19
Iteration:  2383
 O        -3.821608        -1.574712         1.214996
 C        -2.744168        -0.703890         1.118357
 C        -1.906139        -0.484811         2.541306
 C        -1.490484         0.787949         1.804231
 C        -2.825977         0.980126         0.950939
 C        -1.976357         1.562411        -0.142410
 C        -0.907678         0.582989         0.392359
 O         0.411646         0.517697        -0.080593
 C        -1.642855        -0.809725         0.041232
 H        -4.007523        -1.893732         0.341089
 H        -2.578420        -0.303436         3.411793
 H        -1.027688        -1.155954         2.879041
 H        -1.127407         1.698616         2.460499
 H        -3.685765         1.614843         1.403616
 H        -2.339324         1.591388        -1.207667
 H        -1.685736         2.640607         0.065259
 H         0.990693         0.423473         0.688572
 H        -1.956072        -0.581125        -1.038276
 H        -0.854213        -1.595626         0.047357
