19
Iteration:  3330charge 0 multiplicity 1
 O        -3.913818        -1.543354         0.996995
 C        -2.751219        -0.655770         1.162264
 C        -1.956587        -0.471710         2.466041
 C        -1.390969         0.762346         1.843068
 C        -2.699364         1.005623         1.140345
 C        -1.981844         1.404600        -0.156579
 C        -0.918089         0.444505         0.446724
 O         0.401343         0.818221        -0.125261
 C        -1.627408        -0.928294         0.151011
 H        -4.465055        -1.100458         0.297310
 H        -2.642038        -0.230086         3.307702
 H        -1.391718        -1.384149         2.819674
 H        -0.778633         1.564553         2.254240
 H        -3.437116         1.513559         1.676761
 H        -2.449086         1.179452        -1.082250
 H        -1.614345         2.438060        -0.056238
 H         1.062944         0.235565         0.369659
 H        -1.922128        -0.993593        -0.953164
 H        -1.011083        -1.836619         0.453799
