19
Iteration:  2193charge 0 multiplicity 1
 O        -3.914535        -1.458820         1.187980
 C        -2.721644        -0.621879         1.153323
 C        -1.969653        -0.511792         2.477993
 C        -1.548154         0.872199         1.937765
 C        -2.862429         0.895586         1.002176
 C        -1.958015         1.419976        -0.152253
 C        -0.824583         0.513162         0.401882
 O         0.437348         0.767226        -0.221255
 C        -1.482749        -0.987756         0.180546
 H        -4.431920        -1.487036         0.325913
 H        -2.618267        -0.385367         3.384341
 H        -1.096902        -1.181377         2.653653
 H        -1.097222         1.705320         2.391845
 H        -3.830986         1.302385         1.232400
 H        -2.130902         1.281432        -1.248058
 H        -1.774646         2.524694        -0.098292
 H         0.848298        -0.126086        -0.205545
 H        -1.738064        -1.218591        -0.878993
 H        -0.840341        -1.778302         0.635406
