19
Iteration:   686charge 0 multiplicity 1
 O        -3.819443        -1.629949         1.182190
 C        -2.714018        -0.628182         1.123663
 C        -1.925823        -0.520271         2.430951
 C        -1.352811         0.805006         1.771428
 C        -2.795197         0.985032         1.103388
 C        -2.059151         1.527651        -0.189684
 C        -0.962929         0.543489         0.324350
 O         0.410737         0.661107         0.063137
 C        -1.601861        -0.875299         0.056663
 H        -4.641839        -1.110306         1.023921
 H        -2.431384        -0.427163         3.412363
 H        -1.220259        -1.317920         2.631461
 H        -0.883900         1.640138         2.422266
 H        -3.611617         1.429563         1.577077
 H        -2.511341         1.452849        -1.219307
 H        -1.684173         2.508561        -0.008580
 H         0.622518         0.690700        -0.903805
 H        -1.974449        -1.186896        -0.925184
 H        -0.930489        -1.715115         0.296252
