19
Iteration:  2096
 O        -3.832968        -1.418911         1.261880
 C        -2.729349        -0.695436         1.083215
 C        -1.944804        -0.526949         2.452402
 C        -1.606629         0.910726         1.767922
 C        -2.891627         0.909972         0.947586
 C        -2.030398         1.560543        -0.127438
 C        -0.854641         0.506573         0.337723
 O         0.503147         0.548475        -0.090996
 C        -1.538519        -0.904987         0.060663
 H        -3.540658        -2.144782         1.892154
 H        -2.686052        -0.379585         3.281162
 H        -1.228733        -1.324735         2.841980
 H        -1.395701         1.659243         2.452736
 H        -3.719797         1.473486         1.248533
 H        -2.325717         1.571005        -1.170569
 H        -1.913552         2.632230         0.162590
 H         1.004846         0.515041         0.753283
 H        -1.820268        -1.035559        -1.038184
 H        -0.698821        -1.646590         0.240354
