19
Iteration:  3284
 O        -3.813561        -1.427774         1.019799
 C        -2.674209        -0.610514         1.072540
 C        -2.010120        -0.529071         2.459683
 C        -1.454644         0.824868         1.847798
 C        -2.850416         0.933109         1.119882
 C        -2.088695         1.567628        -0.014910
 C        -0.847178         0.538825         0.392012
 O         0.360752         0.529752        -0.168912
 C        -1.444133        -0.883833         0.250574
 H        -4.068691        -1.676473         0.139512
 H        -2.702410        -0.314630         3.264494
 H        -1.226586        -1.219726         2.884739
 H        -1.160924         1.668677         2.399117
 H        -3.761991         1.295680         1.624137
 H        -2.545028         1.429653        -1.001179
 H        -1.709720         2.553201         0.136120
 H         0.569706        -0.290790        -0.633727
 H        -1.693686        -0.966540        -0.845935
 H        -0.772732        -1.681511         0.560957
