19
Iteration:  4642
 O        -3.799279        -1.430692         1.195417
 C        -2.674878        -0.652501         1.086482
 C        -1.880526        -0.525978         2.403880
 C        -1.461562         0.792196         1.803291
 C        -2.834020         1.024333         1.015782
 C        -2.024076         1.454488        -0.171502
 C        -0.903157         0.415953         0.318067
 O         0.467987         0.622077         0.229839
 C        -1.717952        -0.843076        -0.008226
 H        -4.397410        -1.536445         0.480545
 H        -2.619103        -0.336298         3.212243
 H        -1.253484        -1.307585         2.671444
 H        -0.811693         1.539557         2.174230
 H        -3.722470         1.617899         1.426852
 H        -2.295607         1.262606        -1.207856
 H        -1.822273         2.564823         0.164278
 H         0.719007         0.248123        -0.599511
 H        -2.268509        -0.859521        -1.024584
 H        -1.018725        -1.722374         0.214034
