19
Iteration:  4678charge 0 multiplicity 1
 O        -3.915885        -1.517736         1.217715
 C        -2.764499        -0.688429         1.095349
 C        -1.981993        -0.565195         2.416575
 C        -1.410681         0.737103         1.774537
 C        -2.766979         1.067842         1.009616
 C        -1.959516         1.561685        -0.195750
 C        -0.904119         0.497069         0.354016
 O         0.484959         0.657480         0.089073
 C        -1.614532        -0.867821         0.137814
 H        -4.306333        -1.670423         0.355777
 H        -2.665021        -0.361665         3.238913
 H        -1.347129        -1.439212         2.761858
 H        -0.786992         1.463660         2.361312
 H        -3.531854         1.619460         1.486429
 H        -2.290834         1.493814        -1.222587
 H        -1.867404         2.591355        -0.021019
 H         0.729087         0.498928        -0.808398
 H        -2.006224        -1.094195        -0.865341
 H        -0.954391        -1.726855         0.384753
