19
Iteration:   782charge 0 multiplicity 1
 O        -3.980279        -1.276728         0.992548
 C        -2.689220        -0.673683         1.095146
 C        -1.904712        -0.555508         2.487983
 C        -1.434178         0.710601         1.878544
 C        -2.757951         0.911356         1.132060
 C        -2.050621         1.271815        -0.127244
 C        -0.869296         0.454831         0.382443
 O         0.386462         0.958042        -0.179912
 C        -1.565728        -1.004161         0.157566
 H        -4.128302        -1.626747         1.887854
 H        -2.539203        -0.519816         3.411236
 H        -1.018499        -1.255308         2.631774
 H        -0.886001         1.642255         2.291983
 H        -3.586827         1.319754         1.671940
 H        -2.411119         0.995457        -1.113639
 H        -1.661592         2.276640        -0.148710
 H         1.157793         0.517285         0.263352
 H        -1.823930        -1.172128        -0.881136
 H        -1.100192        -1.927629         0.563551
