19
Iteration:   677charge 0 multiplicity 1
 O        -3.860076        -1.507068         1.149987
 C        -2.701865        -0.632476         1.137451
 C        -1.855976        -0.502979         2.424344
 C        -1.407475         0.741260         1.823767
 C        -2.812153         0.969664         1.093943
 C        -2.149846         1.499676        -0.143211
 C        -0.905019         0.436962         0.269621
 O         0.457686         0.760972         0.054463
 C        -1.568128        -0.973698         0.092532
 H        -4.670337        -0.984803         0.991248
 H        -2.650257        -0.416233         3.208370
 H        -1.106079        -1.285618         2.547810
 H        -0.644903         1.482088         2.210946
 H        -3.675678         1.353820         1.599920
 H        -2.603821         1.280865        -1.180948
 H        -1.925731         2.569080        -0.047950
 H         0.648238         0.808379        -0.917856
 H        -1.887614        -1.076692        -0.975443
 H        -0.986019        -1.739078         0.593479
