19
Iteration:  2876charge 0 multiplicity 1
 O        -3.805993        -1.572176         1.063619
 C        -2.678503        -0.612647         1.245246
 C        -1.907322        -0.540338         2.547686
 C        -1.339416         0.752169         1.854096
 C        -2.717949         1.060965         1.096264
 C        -2.080517         1.454068        -0.231884
 C        -0.945975         0.535672         0.283372
 O         0.422351         0.589800         0.060294
 C        -1.758764        -0.811175         0.000606
 H        -3.925111        -1.541935         0.119002
 H        -2.660629        -0.287831         3.324309
 H        -1.265504        -1.319969         2.926884
 H        -0.735453         1.489419         2.319865
 H        -3.598225         1.501843         1.402871
 H        -2.604498         1.124610        -1.150083
 H        -1.795719         2.504333        -0.395270
 H         0.729334         1.426341         0.427913
 H        -2.363550        -0.894549        -0.941495
 H        -1.246962        -1.838357         0.118830
