19
Iteration:  3316charge 0 multiplicity 1
 O        -3.839143        -1.551713         0.901991
 C        -2.769549        -0.633147         1.156276
 C        -1.961008        -0.512755         2.688210
 C        -1.397690         0.749340         1.933192
 C        -2.755573         1.053456         1.141005
 C        -2.002053         1.460655        -0.140029
 C        -0.863802         0.497892         0.308635
 O         0.353057         0.684944        -0.154836
 C        -1.579221        -0.848754         0.174091
 H        -4.385652        -1.260838         0.143530
 H        -2.598763        -0.228032         3.520529
 H        -1.180234        -1.253637         3.017985
 H        -0.966008         1.509342         2.520287
 H        -3.655105         1.608844         1.490300
 H        -2.459320         1.081970        -1.105118
 H        -1.721453         2.475356        -0.368337
 H         0.932586        -0.071452        -0.125130
 H        -1.983741        -0.930061        -0.831297
 H        -1.008752        -1.744387         0.317649
