19
Iteration:  1072charge 0 multiplicity 1
 O        -3.853216        -1.508569         1.250864
 C        -2.720555        -0.630185         1.157054
 C        -1.646948        -0.682051         2.269089
 C        -1.420778         0.749160         1.743829
 C        -2.828003         0.994466         1.176637
 C        -2.088720         1.539087        -0.223904
 C        -1.011934         0.567037         0.272014
 O         0.429116         0.567126         0.265277
 C        -1.698122        -0.782115        -0.070153
 H        -4.473472        -1.125484         0.670087
 H        -1.829317        -0.878042         3.330341
 H        -0.830935        -1.425262         2.063883
 H        -0.843229         1.412144         2.266990
 H        -3.633092         1.622377         1.645040
 H        -2.562618         1.291563        -1.177084
 H        -1.979858         2.645385        -0.317905
 H         0.690457         1.513579         0.183957
 H        -2.294986        -0.791494        -1.021675
 H        -1.226571        -1.757807        -0.106462
