19
Iteration:  2701
 O        -3.943543        -1.374649         1.054904
 C        -2.743462        -0.661146         1.109799
 C        -1.876586        -0.603305         2.417043
 C        -1.352917         0.751061         1.761002
 C        -2.770566         0.928994         1.159767
 C        -2.115762         1.511682        -0.100362
 C        -0.905690         0.483259         0.352814
 O         0.433597         0.674341        -0.022030
 C        -1.596013        -0.905671         0.061308
 H        -3.810610        -2.282524         1.260300
 H        -2.400530        -0.316248         3.341441
 H        -1.159449        -1.420454         2.551925
 H        -1.043241         1.578704         2.348501
 H        -3.589701         1.389382         1.657190
 H        -2.468243         1.573826        -1.152522
 H        -1.798502         2.566826         0.068497
 H         0.751464         1.485555         0.378992
 H        -1.803849        -1.231646        -0.973803
 H        -0.942530        -1.678810         0.522723
