19
Iteration:  3039
 O        -3.793842        -1.586304         1.133053
 C        -2.744434        -0.609165         1.133550
 C        -2.056920        -0.536182         2.532823
 C        -1.463240         0.709987         1.889911
 C        -2.766869         1.030275         1.101380
 C        -1.881702         1.570729        -0.118330
 C        -0.912631         0.459917         0.302087
 O         0.400080         0.673856        -0.176062
 C        -1.665457        -0.860631         0.105204
 H        -3.602275        -2.264154         0.423231
 H        -2.700490        -0.095433         3.332243
 H        -1.442735        -1.337268         2.918542
 H        -0.916895         1.461566         2.430863
 H        -3.732926         1.415262         1.329153
 H        -2.206793         1.495616        -1.146021
 H        -1.426062         2.525777         0.072932
 H         0.811421         1.490173         0.214089
 H        -2.177821        -0.917276        -0.816202
 H        -1.162701        -1.841146         0.241453
