19
Iteration:  1336charge 0 multiplicity 1
 O        -3.941862        -1.310747         0.951379
 C        -2.678514        -0.735919         1.175249
 C        -1.876613        -0.579695         2.579949
 C        -1.336309         0.746554         1.884099
 C        -2.738536         0.835659         1.087062
 C        -2.113450         1.310369        -0.135625
 C        -0.909602         0.448484         0.324445
 O         0.377808         0.896729        -0.118379
 C        -1.530564        -0.940456         0.190800
 H        -4.564584        -0.654117         1.245166
 H        -2.703054        -0.283905         3.296702
 H        -1.259434        -1.339332         3.120500
 H        -0.752246         1.545807         2.375992
 H        -3.644383         1.201903         1.606079
 H        -2.507872         1.160166        -1.179375
 H        -1.695506         2.383375        -0.037137
 H         0.467192         0.919833        -1.100153
 H        -1.993948        -1.034740        -0.818477
 H        -0.866489        -1.775488         0.560246
