19
Iteration:  4736
 O        -3.943055        -1.428325         0.938223
 C        -2.760721        -0.559266         1.125593
 C        -1.983864        -0.544589         2.581808
 C        -1.328603         0.729729         1.829324
 C        -2.784217         0.988557         1.157315
 C        -2.073491         1.406748        -0.152619
 C        -0.888424         0.470753         0.236522
 O         0.449613         0.683941        -0.011283
 C        -1.524379        -0.919146         0.259689
 H        -3.957960        -1.368025        -0.055552
 H        -2.443555        -0.027581         3.459889
 H        -1.480718        -1.545060         2.822997
 H        -0.891961         1.516222         2.481160
 H        -3.426763         1.559344         1.902481
 H        -2.474260         1.151163        -1.136626
 H        -1.993570         2.464095         0.012561
 H         0.573871         0.586453        -1.009717
 H        -1.834476        -1.190249        -0.740449
 H        -0.803897        -1.591366         0.656070
