19
Iteration:    24
 O        -3.613545        -1.787890         1.058706
 C        -2.772650        -0.644689         1.199137
 C        -2.023955        -0.401241         2.548062
 C        -1.369271         0.787762         1.781849
 C        -2.733695         1.090120         1.110442
 C        -2.015597         1.608878        -0.133750
 C        -0.959750         0.514746         0.273635
 O         0.388868         0.591737        -0.094601
 C        -1.741868        -0.811559         0.061380
 H        -4.616158        -1.705043         1.269977
 H        -2.724170         0.003217         3.269634
 H        -1.481693        -1.089968         3.192513
 H        -0.786480         1.562552         2.193829
 H        -3.586580         1.662165         1.601969
 H        -2.301304         1.580970        -1.124310
 H        -1.616004         2.664643         0.036152
 H         0.857050        -0.085439         0.459612
 H        -2.241973        -0.897587        -0.906981
 H        -1.248050        -1.776254         0.156492
