19
Iteration:  3485charge 0 multiplicity 1
 O        -3.948033        -1.321708         1.041875
 C        -2.752561        -0.642950         1.146204
 C        -1.912607        -0.541777         2.472737
 C        -1.442174         0.821430         1.853325
 C        -2.757322         0.923580         1.074374
 C        -2.032876         1.385726        -0.171593
 C        -0.919056         0.456639         0.425800
 O         0.374385         0.774356        -0.102527
 C        -1.442963        -1.018810         0.200520
 H        -4.224637        -1.283397         0.133318
 H        -2.632226        -0.262664         3.288980
 H        -1.048562        -1.195553         2.702107
 H        -0.949057         1.589853         2.501025
 H        -3.737530         1.347488         1.443173
 H        -2.497408         1.119803        -1.106156
 H        -1.671338         2.437843        -0.161724
 H         0.799872        -0.038953         0.098803
 H        -1.719049        -1.184146        -0.878627
 H        -0.782826        -1.851307         0.607104
