19
Iteration:  2172
 O        -3.958745        -1.331176         1.018252
 C        -2.629932        -0.720809         1.182101
 C        -1.935835        -0.485525         2.592721
 C        -1.477234         0.764557         1.868575
 C        -2.735924         0.850621         1.071324
 C        -2.076316         1.295746        -0.215890
 C        -0.870161         0.490360         0.370958
 O         0.284549         0.803974        -0.211377
 C        -1.375678        -0.917280         0.300933
 H        -4.339431        -0.567108         0.550385
 H        -2.797117        -0.195248         3.228182
 H        -1.326025        -1.351848         2.901028
 H        -1.167317         1.636387         2.327887
 H        -3.595558         1.353571         1.382014
 H        -2.385455         1.097288        -1.246395
 H        -1.809325         2.382032        -0.242273
 H         0.852650         0.038681        -0.122129
 H        -1.530442        -1.103706        -0.797072
 H        -0.657170        -1.665855         0.731127
