19
Iteration:   862charge 0 multiplicity 1
 O        -3.689064        -1.604480         1.114884
 C        -2.731527        -0.616339         1.156203
 C        -1.858451        -0.523068         2.541331
 C        -1.497268         0.825076         1.862886
 C        -2.867764         0.999534         1.097789
 C        -1.921476         1.589109        -0.155477
 C        -0.964348         0.553589         0.374054
 O         0.313166         0.526567        -0.103449
 C        -1.676875        -0.775951         0.027183
 H        -4.032998        -1.559601         0.191609
 H        -2.406499        -0.243200         3.510333
 H        -1.033752        -1.283595         2.699664
 H        -1.101904         1.737857         2.399399
 H        -3.756427         1.390311         1.629755
 H        -2.211122         1.345833        -1.192215
 H        -1.691292         2.653081        -0.067260
 H         0.718812        -0.343856         0.154043
 H        -2.001727        -0.966178        -1.059689
 H        -1.008676        -1.591193         0.378704
