19
Iteration:  3033
 O        -3.824129        -1.563959         1.082912
 C        -2.740815        -0.624959         1.205088
 C        -2.033978        -0.488576         2.576987
 C        -1.515495         0.735287         1.946951
 C        -2.753286         1.034487         1.070912
 C        -1.911628         1.498713        -0.098400
 C        -0.883017         0.509809         0.321258
 O         0.405336         0.640339        -0.227971
 C        -1.632609        -0.874495         0.070557
 H        -3.596432        -2.202038         0.359540
 H        -2.803837        -0.368975         3.364816
 H        -1.369163        -1.331491         2.893351
 H        -0.956246         1.461189         2.598012
 H        -3.786528         1.390256         1.427465
 H        -2.137422         1.501575        -1.197832
 H        -1.437550         2.468326         0.263750
 H         0.796492         1.520209        -0.042277
 H        -2.154614        -0.887943        -0.972164
 H        -0.958024        -1.742550         0.177061
