19
Iteration:  2141
 O        -3.819976        -1.432469         0.792020
 C        -2.686304        -0.579223         1.247024
 C        -1.915634        -0.400353         2.573876
 C        -1.379476         0.727152         1.815163
 C        -2.728900         1.033032         1.170969
 C        -2.204836         1.262540        -0.222287
 C        -0.903828         0.384279         0.303679
 O         0.376705         0.830770        -0.126875
 C        -1.558187        -0.991160         0.299803
 H        -4.557698        -1.314122         1.446503
 H        -2.488313        -0.145433         3.480921
 H        -1.306714        -1.264584         2.984143
 H        -0.783462         1.489957         2.185901
 H        -3.505307         1.576829         1.596077
 H        -2.820848         0.899281        -1.024374
 H        -1.780939         2.258479        -0.452876
 H         1.036464         0.537160         0.567972
 H        -1.882040        -1.238981        -0.756447
 H        -1.042026        -1.881709         0.726063
