19
Iteration:  3754charge 0 multiplicity 1
 O        -3.925236        -1.406581         0.978980
 C        -2.763905        -0.610724         1.129264
 C        -1.894931        -0.553375         2.481140
 C        -1.352318         0.718551         1.902366
 C        -2.815150         0.932070         1.065051
 C        -2.048069         1.392303        -0.122696
 C        -0.893461         0.477204         0.391292
 O         0.425850         0.744720        -0.130050
 C        -1.569844        -0.935409         0.175480
 H        -4.721988        -0.806307         0.980287
 H        -2.546414        -0.335209         3.326204
 H        -1.249867        -1.409675         2.624683
 H        -1.031150         1.664819         2.507931
 H        -3.593839         1.445189         1.652870
 H        -2.346288         1.307842        -1.158008
 H        -1.681266         2.404427        -0.005641
 H         1.274588         0.611874         0.385306
 H        -1.851475        -0.996588        -0.913841
 H        -0.962960        -1.828060         0.418806
