19
Iteration:  4585
 O        -3.843632        -1.384955         1.010304
 C        -2.741351        -0.551547         1.127253
 C        -2.083043        -0.500019         2.545066
 C        -1.372455         0.710016         1.883431
 C        -2.729023         0.925772         1.132977
 C        -2.059685         1.444462        -0.159297
 C        -0.832953         0.392695         0.290044
 O         0.446221         0.718828        -0.044794
 C        -1.591277        -0.925458         0.222761
 H        -3.981878        -1.676987         0.062687
 H        -2.806629        -0.193353         3.326016
 H        -1.515934        -1.349748         2.859439
 H        -0.835557         1.521507         2.405742
 H        -3.553640         1.362262         1.781108
 H        -2.458982         1.391419        -1.193295
 H        -1.806348         2.572325        -0.103476
 H         0.537560         0.546239        -1.038216
 H        -1.939571        -1.059325        -0.875191
 H        -1.109122        -1.885625         0.500922
