19
Iteration:  2660charge 0 multiplicity 1
 O        -3.805275        -1.262233         0.881894
 C        -2.654847        -0.637668         1.202729
 C        -1.956156        -0.652998         2.600803
 C        -1.480756         0.814214         2.041751
 C        -2.747237         0.944764         1.195666
 C        -2.110888         1.427825        -0.124471
 C        -0.928347         0.569655         0.391651
 O         0.365854         0.568450        -0.286326
 C        -1.541932        -0.931616         0.166483
 H        -3.446498        -1.920923         0.201380
 H        -2.697790        -0.555213         3.450951
 H        -1.300231        -1.519906         2.825412
 H        -1.044843         1.581719         2.630053
 H        -3.494227         1.309588         1.816736
 H        -2.660184         1.211264        -1.110885
 H        -1.808518         2.509918        -0.112814
 H         0.473441         1.359835        -0.840158
 H        -1.778464        -0.945973        -0.907153
 H        -0.922314        -1.818451         0.492220
