19
Iteration:  1660charge 0 multiplicity 1
 O        -4.094206        -1.231036         1.034915
 C        -2.700415        -0.645440         1.209065
 C        -1.989183        -0.569639         2.552000
 C        -1.424686         0.710760         1.915685
 C        -2.657443         0.933241         1.114655
 C        -2.048552         1.222396        -0.219887
 C        -0.817157         0.366653         0.371809
 O         0.371350         0.935579        -0.244564
 C        -1.388021        -0.974435         0.265225
 H        -3.864692        -2.211956         0.871590
 H        -2.697617        -0.371917         3.345287
 H        -1.497787        -1.509594         2.798771
 H        -0.855602         1.550843         2.442931
 H        -3.641089         1.419095         1.454385
 H        -2.591592         0.867043        -1.081602
 H        -1.750251         2.258898        -0.489548
 H         0.289833         1.726490        -0.756455
 H        -1.520622        -1.289921        -0.741717
 H        -0.754492        -1.703367         0.680627
