19
Iteration:  2879charge 0 multiplicity 1
 O        -3.778130        -1.579051         1.052005
 C        -2.655654        -0.602609         1.227945
 C        -1.876930        -0.539705         2.562435
 C        -1.380651         0.755938         1.834238
 C        -2.731012         1.069586         1.113595
 C        -2.058675         1.444601        -0.233424
 C        -0.956971         0.566304         0.284941
 O         0.429856         0.556256         0.065585
 C        -1.791240        -0.820086         0.013832
 H        -4.046701        -1.521162         0.120167
 H        -2.631366        -0.222690         3.327481
 H        -1.196530        -1.337155         2.923924
 H        -0.732172         1.514107         2.284737
 H        -3.690194         1.521402         1.443563
 H        -2.570614         1.176546        -1.253373
 H        -1.931329         2.599455        -0.400177
 H         0.709925         1.340994         0.571811
 H        -2.392445        -0.856546        -0.940402
 H        -1.275944        -1.830263         0.078041
