19
Iteration:  1045
 O        -3.753290        -1.511932         1.318845
 C        -2.688297        -0.621246         1.067078
 C        -1.724524        -0.590311         2.343025
 C        -1.440156         0.819478         1.780066
 C        -2.816441         0.974840         1.114682
 C        -2.148760         1.592837        -0.131207
 C        -1.007145         0.550930         0.306802
 O         0.401773         0.438928         0.145280
 C        -1.689720        -0.787809        -0.181227
 H        -4.165958        -1.705276         0.499857
 H        -2.295340        -0.666900         3.292291
 H        -0.901079        -1.311381         2.313786
 H        -0.860707         1.701772         2.365888
 H        -3.676898         1.472375         1.591064
 H        -2.547231         1.677224        -1.220870
 H        -1.880555         2.586618         0.247526
 H         0.756862         1.045445         0.827364
 H        -2.178978        -0.614494        -1.144505
 H        -1.194457        -1.774603        -0.107495
