19
Iteration:  1644charge 0 multiplicity 1
 O        -4.026878        -1.132119         1.113838
 C        -2.675596        -0.728803         1.142682
 C        -1.942896        -0.550541         2.513425
 C        -1.366409         0.778047         1.893160
 C        -2.771617         0.821674         1.067406
 C        -2.050822         1.249513        -0.237562
 C        -0.903120         0.505566         0.320414
 O         0.394427         0.898540        -0.060135
 C        -1.395091        -1.102064         0.154360
 H        -4.244841        -2.084479         0.977785
 H        -2.634047        -0.294246         3.360726
 H        -1.157098        -1.213372         2.930416
 H        -0.954120         1.550041         2.487153
 H        -3.642958         1.265870         1.451814
 H        -2.460968         0.896154        -1.248903
 H        -1.936698         2.351556        -0.210304
 H         0.139999         1.349125        -0.872346
 H        -1.753050        -1.291369        -0.911023
 H        -0.720739        -1.940038         0.604890
