19
Iteration:  3147charge 0 multiplicity 1
 O        -3.793269        -1.533927         0.897454
 C        -2.760282        -0.561859         1.188301
 C        -2.088596        -0.478807         2.524350
 C        -1.287981         0.658919         1.906600
 C        -2.699689         1.005195         1.136641
 C        -2.012521         1.460758        -0.119074
 C        -0.923478         0.452942         0.292625
 O         0.383048         0.710009        -0.122241
 C        -1.646027        -0.884709         0.211097
 H        -3.995675        -2.029722         1.767618
 H        -2.757293        -0.022006         3.283520
 H        -1.857013        -1.437186         2.949183
 H        -0.662632         1.322719         2.483030
 H        -3.519031         1.538367         1.469957
 H        -2.478069         1.134146        -1.108073
 H        -1.573954         2.529657        -0.239231
 H         0.464883         1.390879        -0.848190
 H        -1.947283        -1.034412        -0.767882
 H        -0.836001        -1.524126         0.585055
