19
Iteration:   632charge 0 multiplicity 1
 O        -3.976473        -1.261571         0.903733
 C        -2.727055        -0.689399         1.151899
 C        -1.776820        -0.635028         2.576908
 C        -1.335544         0.677193         1.907827
 C        -2.706606         0.908152         1.179849
 C        -2.147409         1.242718        -0.188454
 C        -0.928462         0.477941         0.407169
 O         0.325945         0.945266        -0.143876
 C        -1.466312        -1.000543         0.224094
 H        -4.569535        -0.563041         0.681067
 H        -2.342048        -0.206716         3.438422
 H        -1.000958        -1.347334         2.865281
 H        -0.718921         1.429344         2.538938
 H        -3.558714         1.444763         1.460157
 H        -2.869248         0.809872        -0.996034
 H        -1.896731         2.268272        -0.374219
 H         0.305785         0.720993        -1.106076
 H        -1.835822        -1.048771        -0.808760
 H        -0.798074        -1.696075         0.704898
