19
Iteration:  2964
 O        -3.945579        -1.413015         0.998297
 C        -2.708740        -0.648305         1.185789
 C        -1.906105        -0.468089         2.487298
 C        -1.309288         0.697632         1.852758
 C        -2.743060         0.966138         1.163745
 C        -2.060107         1.338929        -0.189601
 C        -0.903140         0.437522         0.372905
 O         0.433868         0.823916        -0.053297
 C        -1.682341        -0.976599         0.098558
 H        -3.881152        -1.585698         0.043462
 H        -2.538429        -0.193021         3.351197
 H        -1.225183        -1.249066         2.813885
 H        -0.780962         1.375391         2.492571
 H        -3.472185         1.427713         1.812207
 H        -2.570580         0.953257        -1.058985
 H        -1.740439         2.335213        -0.305007
 H         0.529833         1.711169         0.308553
 H        -1.980439        -1.060501        -0.980450
 H        -1.152189        -1.936597         0.417331
