19
Iteration:  4305charge 0 multiplicity 1
 O        -3.841162        -1.422343         1.046056
 C        -2.688546        -0.585632         1.091629
 C        -1.919596        -0.547718         2.530474
 C        -1.421645         0.727705         1.857872
 C        -2.677885         0.994778         1.120609
 C        -2.071593         1.496890        -0.266226
 C        -0.952761         0.466426         0.381810
 O         0.348128         0.555025         0.074410
 C        -1.590572        -0.864616         0.038646
 H        -4.185496        -1.358888         0.145787
 H        -2.696461        -0.276151         3.267711
 H        -1.249620        -1.361637         2.804301
 H        -0.727557         1.379203         2.320573
 H        -3.563157         1.418142         1.698611
 H        -2.668177         1.342177        -1.190711
 H        -1.787475         2.568962        -0.372172
 H         0.775668         1.143315         0.679062
 H        -2.023969        -1.038987        -0.956110
 H        -0.864937        -1.680689         0.293955
