19
Iteration:  4817
 O        -3.810821        -1.524683         1.153649
 C        -2.697536        -0.678758         1.114065
 C        -1.886560        -0.496248         2.356445
 C        -1.446253         0.847877         1.760155
 C        -2.794022         1.052857         1.067023
 C        -2.012951         1.549103        -0.178342
 C        -0.965899         0.479065         0.338611
 O         0.393067         0.489330         0.244444
 C        -1.623458        -0.878931         0.035643
 H        -4.472626        -1.108907         0.591722
 H        -2.425261        -0.436162         3.315165
 H        -1.167340        -1.289505         2.513951
 H        -0.872515         1.715748         2.056082
 H        -3.591675         1.692353         1.442555
 H        -2.473913         1.431118        -1.193016
 H        -1.765261         2.642030        -0.005122
 H         0.493783         0.656260        -0.710661
 H        -1.791849        -1.101992        -0.988540
 H        -0.879249        -1.628081         0.374623
