19
Iteration:   155charge 0 multiplicity 1
 O        -3.915816        -1.365587         1.017960
 C        -2.696226        -0.662107         1.156353
 C        -1.930423        -0.484172         2.587530
 C        -1.392877         0.718739         1.932308
 C        -2.760359         0.903841         1.151161
 C        -2.060837         1.379958        -0.164451
 C        -0.931355         0.509502         0.325520
 O         0.366802         0.733268        -0.270370
 C        -1.504615        -0.971504         0.233027
 H        -3.965464        -1.661900         0.088136
 H        -2.598853        -0.119687         3.364201
 H        -1.267793        -1.257734         2.912871
 H        -0.873915         1.556062         2.390958
 H        -3.752456         1.252947         1.646461
 H        -2.483318         1.050000        -1.061776
 H        -1.806949         2.471792        -0.187759
 H         0.780617         1.597428        -0.021730
 H        -1.715053        -1.208856        -0.801438
 H        -0.966455        -1.776554         0.719418
