19
Iteration:  1508
 O        -3.921599        -1.269886         0.961845
 C        -2.681938        -0.626909         1.253189
 C        -1.880062        -0.548601         2.524091
 C        -1.384378         0.784328         1.805942
 C        -2.706354         0.924945         1.106061
 C        -2.205989         1.155692        -0.288091
 C        -0.951374         0.447431         0.324571
 O         0.334275         0.927046        -0.086645
 C        -1.418980        -1.046227         0.264531
 H        -4.684185        -0.629102         0.930126
 H        -2.399864        -0.270668         3.452240
 H        -1.137782        -1.362368         2.742030
 H        -0.799731         1.604249         2.319657
 H        -3.605798         1.358343         1.625388
 H        -2.573172         0.627354        -1.122190
 H        -1.959595         2.212686        -0.442743
 H         1.072848         0.477459         0.380486
 H        -1.755768        -1.253058        -0.753741
 H        -0.765887        -1.838663         0.646953
