19
Iteration:  4532charge 0 multiplicity 1
 O        -3.889570        -1.414245         1.154101
 C        -2.769082        -0.603258         1.152673
 C        -1.913133        -0.594500         2.438418
 C        -1.407192         0.794479         1.796635
 C        -2.848329         0.887605         1.049999
 C        -2.018972         1.474097        -0.174735
 C        -0.869352         0.590395         0.231777
 O         0.536296         0.562428         0.128357
 C        -1.641714        -0.865104         0.135073
 H        -4.178459        -1.134213         0.218873
 H        -2.639389        -0.371476         3.241252
 H        -1.228006        -1.367313         2.498380
 H        -1.176384         1.653169         2.418263
 H        -3.832455         1.378382         1.481469
 H        -2.440125         1.354508        -1.129979
 H        -2.033339         2.568015         0.114247
 H         0.849935         0.647123        -0.854482
 H        -1.813449        -1.122157        -0.959242
 H        -0.988042        -1.667556         0.580076
