19
Iteration:  3024
 O        -3.868348        -1.494694         1.020591
 C        -2.696822        -0.713507         1.202899
 C        -2.028379        -0.501917         2.591703
 C        -1.514153         0.853431         2.014306
 C        -2.784603         0.952021         1.076038
 C        -1.945613         1.463837        -0.065320
 C        -0.875591         0.505195         0.375117
 O         0.408867         0.566234        -0.278654
 C        -1.561548        -0.837393         0.082391
 H        -3.627860        -2.054908         0.229049
 H        -2.812895        -0.499559         3.359038
 H        -1.209957        -1.231807         2.807350
 H        -1.080054         1.691614         2.602978
 H        -3.547614         1.630863         1.524125
 H        -2.309525         1.524453        -1.146947
 H        -1.752036         2.591663         0.211257
 H         0.592977         1.530574        -0.357551
 H        -1.931010        -0.851785        -0.972119
 H        -0.843545        -1.628297         0.218352
