19
Iteration:  1444
 O        -3.753116        -1.603018         1.018108
 C        -2.784492        -0.582601         1.149616
 C        -1.956537        -0.510472         2.558356
 C        -1.448888         0.805972         1.847583
 C        -2.750350         1.033500         1.092787
 C        -2.015323         1.434503        -0.213576
 C        -0.925302         0.497852         0.365593
 O         0.350350         0.699638        -0.211435
 C        -1.565529        -0.877866         0.228738
 H        -4.506256        -1.400532         1.560356
 H        -2.616283        -0.156403         3.325384
 H        -1.221090        -1.257912         2.829978
 H        -0.900432         1.652350         2.379202
 H        -3.708250         1.500483         1.510359
 H        -2.493304         1.247279        -1.166225
 H        -1.636321         2.484966        -0.192845
 H         0.938418         0.027117         0.222246
 H        -1.843010        -1.083280        -0.810483
 H        -0.962057        -1.653385         0.745607
