19
Iteration:  2633charge 0 multiplicity 1
 O        -3.977259        -1.445288         1.048874
 C        -2.746730        -0.714091         1.104728
 C        -1.985623        -0.560375         2.515816
 C        -1.425435         0.749949         1.940537
 C        -2.747155         0.953811         1.093977
 C        -1.969162         1.517335        -0.014591
 C        -0.894070         0.550928         0.404385
 O         0.363719         0.653785        -0.344092
 C        -1.452326        -0.933399         0.220494
 H        -4.155627        -1.587004         0.075894
 H        -2.589619        -0.298287         3.374260
 H        -1.299958        -1.381052         2.773053
 H        -0.883436         1.437311         2.658043
 H        -3.729538         1.383292         1.514800
 H        -2.452070         1.556483        -0.986732
 H        -1.622533         2.552508         0.170795
 H         0.661938         1.571777        -0.296118
 H        -1.445685        -1.242394        -0.835705
 H        -0.778424        -1.586888         0.757481
