19
Iteration:  2463
 O        -3.903033        -1.274381         0.984892
 C        -2.638485        -0.663495         1.181197
 C        -1.846647        -0.514741         2.565092
 C        -1.524193         0.791251         1.926401
 C        -2.794905         0.856237         1.044938
 C        -2.158476         1.485340        -0.135440
 C        -0.865276         0.515822         0.385490
 O         0.404849         0.531085        -0.157733
 C        -1.503877        -0.953590         0.176917
 H        -4.017023        -1.087565         0.066888
 H        -2.340088        -0.456453         3.549546
 H        -0.963685        -1.137575         2.593760
 H        -1.056489         1.532081         2.526031
 H        -3.721688         1.029374         1.482366
 H        -2.462341         1.251905        -1.142237
 H        -2.177663         2.523163         0.108684
 H         0.520515         1.477736        -0.042880
 H        -1.739364        -1.122340        -0.881770
 H        -0.841268        -1.805750         0.441708
