19
Iteration:  3238charge 0 multiplicity 1
 O        -3.869143        -1.372277         1.177655
 C        -2.772595        -0.600285         1.125460
 C        -1.844410        -0.521766         2.436329
 C        -1.375301         0.678160         1.811918
 C        -2.734871         0.968785         1.038510
 C        -2.064199         1.346173        -0.217401
 C        -0.921368         0.411844         0.368536
 O         0.479657         0.878751         0.191044
 C        -1.768768        -0.948840        -0.030483
 H        -3.666682        -2.045397         0.545528
 H        -2.455609        -0.380815         3.348465
 H        -1.435874        -1.530569         2.539088
 H        -0.811819         1.551977         2.279110
 H        -3.562302         1.633879         1.568505
 H        -2.446507         1.086181        -1.246775
 H        -1.704031         2.380246        -0.150805
 H         0.824708         0.449216        -0.576296
 H        -2.067021        -0.775463        -1.051913
 H        -1.416088        -1.951684         0.140532
