19
Iteration:   683
 O        -3.841030        -1.593684         1.172424
 C        -2.702904        -0.619660         1.129255
 C        -1.909669        -0.505728         2.429553
 C        -1.362548         0.783417         1.790151
 C        -2.802561         0.979777         1.100325
 C        -2.096948         1.521031        -0.181969
 C        -0.936652         0.505894         0.309395
 O         0.426003         0.694782         0.057381
 C        -1.590784        -0.915444         0.059396
 H        -4.617210        -1.088641         1.022068
 H        -2.503382        -0.469501         3.336410
 H        -1.166335        -1.308370         2.589452
 H        -0.802954         1.550512         2.334696
 H        -3.700622         1.411865         1.622893
 H        -2.507849         1.407099        -1.149530
 H        -1.765301         2.556094        -0.017505
 H         0.653340         0.739542        -0.873181
 H        -1.937089        -1.153425        -0.928744
 H        -0.935092        -1.740651         0.433392
