19
Iteration:  4182
 O        -3.843078        -1.427361         1.160626
 C        -2.696280        -0.562730         1.047590
 C        -1.794778        -0.641951         2.334297
 C        -1.530907         0.751514         1.894153
 C        -2.769530         0.961077         1.010425
 C        -1.988794         1.530538        -0.114937
 C        -0.974940         0.469501         0.350341
 O         0.407724         0.639523         0.194284
 C        -1.630878        -0.877218        -0.081628
 H        -4.630589        -0.910457         1.150472
 H        -2.411554        -0.686617         3.276114
 H        -1.033249        -1.407010         2.411625
 H        -1.088403         1.633575         2.479887
 H        -3.705371         1.345686         1.518832
 H        -2.441104         1.558728        -1.094515
 H        -1.745521         2.617729         0.249001
 H         0.701820        -0.091208        -0.299090
 H        -1.855509        -0.748825        -1.072083
 H        -0.940497        -1.757327         0.097838
