19
Iteration:     1charge 0 multiplicity 1
 O        -3.798938        -1.492953         1.017389
 C        -2.704360        -0.649553         1.169186
 C        -1.909858        -0.498834         2.497110
 C        -1.428124         0.801970         1.837116
 C        -2.783532         0.948977         1.085219
 C        -2.053281         1.431997        -0.176437
 C        -0.937418         0.498971         0.338878
 O         0.359693         0.725439        -0.106332
 C        -1.578097        -0.893837         0.152635
 H        -4.430905        -1.297068         1.716914
 H        -2.560422        -0.284689         3.353052
 H        -1.198569        -1.288143         2.763239
 H        -0.948497         1.624006         2.364928
 H        -3.654959         1.437907         1.519630
 H        -2.470280         1.227780        -1.167304
 H        -1.775036         2.486693        -0.094339
 H         0.920112         0.006368         0.204430
 H        -1.937432        -1.060850        -0.865785
 H        -0.930214        -1.727104         0.446055
