19
Iteration:   149charge 0 multiplicity 1
 O        -3.963811        -1.309007         1.007071
 C        -2.675364        -0.649036         1.145998
 C        -1.926331        -0.517692         2.572731
 C        -1.337311         0.744003         1.904204
 C        -2.752642         0.898565         1.165514
 C        -2.059879         1.352755        -0.186641
 C        -0.909117         0.475566         0.346212
 O         0.367380         0.791905        -0.252911
 C        -1.520293        -1.032287         0.272187
 H        -3.983418        -1.757032         0.088832
 H        -2.694184        -0.270994         3.355636
 H        -1.163351        -1.308001         2.859343
 H        -1.016996         1.615348         2.553442
 H        -3.693151         1.145058         1.631545
 H        -2.611420         0.921872        -1.107293
 H        -1.777907         2.418744        -0.245033
 H         0.502444         1.772189        -0.175505
 H        -1.749607        -1.246393        -0.804897
 H        -0.850410        -1.757829         0.803795
