19
Iteration:  1214
 O        -4.027452        -1.431138         1.353383
 C        -2.768193        -0.653010         1.049089
 C        -1.814214        -0.701967         2.244064
 C        -1.338443         0.663613         1.835536
 C        -2.786236         0.951467         1.095674
 C        -1.980520         1.540173        -0.172374
 C        -0.962553         0.544692         0.311344
 O         0.461853         0.795737         0.095417
 C        -1.680064        -0.894605        -0.151443
 H        -3.675084        -2.205664         1.739960
 H        -2.203979        -0.627584         3.273574
 H        -0.993723        -1.454418         2.242489
 H        -0.804679         1.339828         2.384004
 H        -3.577733         1.473299         1.619315
 H        -2.454227         1.439773        -1.182029
 H        -1.716199         2.640915        -0.020902
 H         0.633688         1.285613         0.946978
 H        -1.942429        -0.889501        -1.234442
 H        -1.014138        -1.718405         0.179821
