19
Iteration:  1245charge 0 multiplicity 1
 O        -3.860176        -1.506639         1.186079
 C        -2.721183        -0.626564         1.088081
 C        -1.830590        -0.638467         2.366477
 C        -1.410858         0.683109         1.857240
 C        -2.801026         0.976485         1.049599
 C        -1.997838         1.578559        -0.093582
 C        -0.955438         0.519960         0.298896
 O         0.416370         0.735709         0.061118
 C        -1.735942        -0.832046        -0.102913
 H        -3.898176        -1.771223         2.172013
 H        -2.248961        -0.477041         3.330911
 H        -1.014512        -1.343542         2.359983
 H        -0.825488         1.470556         2.339821
 H        -3.663274         1.448124         1.545607
 H        -2.448741         1.433687        -1.076950
 H        -1.719161         2.610052         0.088616
 H         0.879478        -0.005559         0.454762
 H        -2.156195        -0.741692        -1.094177
 H        -1.125184        -1.698598         0.026563
