19
Iteration:  3868charge 0 multiplicity 1
 O        -3.682851        -1.599547         1.042892
 C        -2.735816        -0.639588         1.051537
 C        -1.972974        -0.492234         2.536569
 C        -1.477693         0.832848         1.826644
 C        -2.682436         1.078553         1.108553
 C        -1.991058         1.595815        -0.111910
 C        -0.964591         0.457038         0.309768
 O         0.443484         0.563789         0.054197
 C        -1.766254        -0.874496        -0.051841
 H        -4.401911        -1.475099         1.724709
 H        -2.762859        -0.147718         3.181903
 H        -1.368549        -1.324060         2.868094
 H        -0.950011         1.492140         2.434632
 H        -3.571611         1.560350         1.539911
 H        -2.356919         1.598737        -1.151029
 H        -1.751770         2.695336         0.011019
 H         0.773130        -0.220704         0.576203
 H        -2.215500        -0.758257        -1.019380
 H        -1.215558        -1.830117        -0.085241
