19
Iteration:  4510
 O        -3.873415        -1.448361         1.209086
 C        -2.674194        -0.675475         1.057699
 C        -1.861610        -0.510691         2.466299
 C        -1.475575         0.795312         1.819443
 C        -2.740916         0.968673         0.972994
 C        -2.024217         1.527080        -0.210199
 C        -0.998076         0.497900         0.395435
 O         0.442290         0.535638         0.231713
 C        -1.603266        -0.867278        -0.036820
 H        -4.404144        -1.270157         0.444992
 H        -2.590024        -0.346103         3.286837
 H        -1.042952        -1.153215         2.582462
 H        -0.948095         1.660286         2.235434
 H        -3.658418         1.440353         1.506466
 H        -2.490988         1.415704        -1.147063
 H        -1.609045         2.559328        -0.045771
 H         0.321015         0.431885        -0.704736
 H        -2.029433        -0.751595        -1.077831
 H        -0.863381        -1.698561        -0.019334
