19
Iteration:  4697
 O        -3.815187        -1.372543         1.070913
 C        -2.713660        -0.567491         1.134433
 C        -1.954320        -0.505885         2.466097
 C        -1.527894         0.836431         1.962686
 C        -2.798383         0.958644         1.088897
 C        -1.975634         1.446686        -0.128491
 C        -0.918178         0.385058         0.352645
 O         0.412763         0.604324        -0.015899
 C        -1.546247        -0.906403         0.065136
 H        -4.130773        -1.618094         0.188640
 H        -2.567131        -0.389572         3.372827
 H        -1.321036        -1.352039         2.551350
 H        -1.174588         1.689877         2.500139
 H        -3.780798         1.319320         1.458355
 H        -2.415497         1.352776        -1.142407
 H        -1.409712         2.422889         0.078294
 H         0.514840         0.569147        -0.981356
 H        -1.895345        -1.174084        -0.982335
 H        -0.918194        -1.771694         0.463032
