19
Iteration:  3719
 O        -3.762463        -1.574205         1.058372
 C        -2.688495        -0.653086         1.140973
 C        -1.928816        -0.479697         2.504403
 C        -1.479987         0.724637         1.937710
 C        -2.861067         1.041545         1.044285
 C        -2.029013         1.620148        -0.151783
 C        -0.899398         0.499293         0.320835
 O         0.441621         0.517630        -0.059587
 C        -1.628288        -0.814812         0.003125
 H        -4.549546        -1.105795         1.473133
 H        -2.597883        -0.290952         3.342833
 H        -1.381831        -1.424277         2.732669
 H        -0.982490         1.665847         2.323935
 H        -3.729950         1.621037         1.426709
 H        -2.422055         1.786771        -1.202882
 H        -1.585624         2.513957         0.241386
 H         0.804962        -0.043086         0.711849
 H        -2.085079        -0.857497        -1.068852
 H        -0.901534        -1.707751         0.108643
