19
Iteration:  4922charge 0 multiplicity 1
 O        -4.001591        -1.408237         0.858216
 C        -2.788668        -0.633945         1.145507
 C        -1.880811        -0.517267         2.610229
 C        -1.336425         0.747732         1.869336
 C        -2.711759         0.920622         1.119445
 C        -2.105178         1.407198        -0.113189
 C        -0.895610         0.519745         0.358815
 O         0.486349         0.700388        -0.085352
 C        -1.640045        -0.865107         0.088070
 H        -3.941170        -2.172261         1.463651
 H        -2.550994        -0.182725         3.437531
 H        -1.084186        -1.212625         2.834560
 H        -0.823504         1.544838         2.343635
 H        -3.631954         1.518360         1.507173
 H        -2.403069         1.033683        -1.054450
 H        -1.811386         2.436741        -0.236507
 H         0.905780         0.338835         0.756257
 H        -2.010352        -0.783893        -0.977916
 H        -0.860077        -1.619683         0.281047
