19
Iteration:  2176
 O        -3.961271        -1.341739         1.056405
 C        -2.661180        -0.758023         1.150104
 C        -1.936817        -0.469006         2.593089
 C        -1.488199         0.780145         1.869818
 C        -2.761329         0.856318         1.033220
 C        -2.037709         1.309951        -0.206159
 C        -0.915216         0.480589         0.409615
 O         0.319941         0.797076        -0.233946
 C        -1.364777        -0.894947         0.290842
 H        -4.338725        -0.626680         0.481167
 H        -2.746258        -0.273603         3.290777
 H        -1.273645        -1.302746         2.812968
 H        -1.149651         1.666182         2.497251
 H        -3.676852         1.355047         1.453421
 H        -2.372854         1.076023        -1.215463
 H        -1.720589         2.349310        -0.134920
 H         0.926462         0.010689        -0.233517
 H        -1.491458        -1.036257        -0.791790
 H        -0.668930        -1.642581         0.665266
