19
Iteration:   386charge 0 multiplicity 1
 O        -3.834270        -1.513328         1.397974
 C        -2.713736        -0.702856         1.102709
 C        -1.738980        -0.680658         2.281376
 C        -1.388427         0.633720         1.701945
 C        -2.730186         1.010110         1.080589
 C        -2.095669         1.691426        -0.197675
 C        -0.989534         0.514062         0.275337
 O         0.450816         0.667905         0.257729
 C        -1.773899        -0.867255        -0.136119
 H        -4.427996        -1.688201         0.596692
 H        -2.362142        -0.436340         3.146787
 H        -1.019376        -1.446537         2.479016
 H        -0.945443         1.568712         2.171350
 H        -3.665041         1.541818         1.716895
 H        -2.345054         1.387583        -1.210516
 H        -1.854861         2.871824        -0.152173
 H         0.638088         1.626576         0.477498
 H        -2.195253        -0.703978        -1.130691
 H        -1.268591        -1.869621        -0.194304
