19
Iteration:  2621
 O        -3.917913        -1.499381         1.099197
 C        -2.727951        -0.649596         1.182071
 C        -2.015846        -0.603556         2.494733
 C        -1.395238         0.710267         1.852926
 C        -2.770972         0.936681         1.152432
 C        -1.964457         1.619392        -0.168134
 C        -0.910816         0.475092         0.349303
 O         0.366040         0.707412        -0.236824
 C        -1.487150        -0.958832         0.188569
 H        -4.244931        -1.400005         0.226623
 H        -2.760997        -0.354929         3.228277
 H        -1.425883        -1.451534         2.843610
 H        -1.046095         1.703865         2.289398
 H        -3.433359         1.601078         1.853149
 H        -2.139251         1.585439        -1.216851
 H        -1.645128         2.577983         0.241107
 H         0.810782         1.494951         0.116095
 H        -1.827178        -1.104928        -0.847475
 H        -0.942999        -1.825171         0.513789
