19
Iteration:  2257charge 0 multiplicity 1
 O        -3.699848        -1.561625         1.183069
 C        -2.694427        -0.645057         1.174542
 C        -1.879921        -0.407913         2.461703
 C        -1.525124         0.869109         1.733817
 C        -2.902541         1.010749         1.048151
 C        -2.135011         1.561539        -0.255603
 C        -0.949082         0.537744         0.349971
 O         0.491552         0.412098         0.067634
 C        -1.663050        -0.826303         0.078012
 H        -3.790125        -1.766463         0.250124
 H        -2.343312        -0.439398         3.444992
 H        -1.129428        -1.184235         2.455211
 H        -1.035096         1.765028         2.147129
 H        -3.784429         1.442826         1.545074
 H        -2.332863         1.376397        -1.337750
 H        -1.752421         2.601994        -0.102649
 H         1.065898         0.496415         0.878878
 H        -2.243339        -0.835630        -0.836686
 H        -1.082938        -1.751703         0.136261
