19
Iteration:  2599
 O        -3.789960        -1.529438         1.164700
 C        -2.688437        -0.624788         1.123348
 C        -1.911865        -0.510992         2.444311
 C        -1.374917         0.706412         1.860731
 C        -2.759834         0.991098         1.074525
 C        -2.072035         1.459893        -0.137484
 C        -0.977942         0.464612         0.291461
 O         0.447411         0.651094         0.025127
 C        -1.717114        -0.829558        -0.019889
 H        -4.458928        -1.250695         0.446908
 H        -2.467124        -0.140992         3.285375
 H        -1.255544        -1.334998         2.729902
 H        -0.603097         1.411790         2.343303
 H        -3.702049         1.634786         1.371383
 H        -2.693273         1.237322        -0.995019
 H        -1.751267         2.500434        -0.013329
 H         0.901631         1.229025         0.677091
 H        -2.048054        -0.881258        -1.060132
 H        -1.162695        -1.723678         0.208377
