19
Iteration:  3548
 O        -3.801056        -1.524639         1.207542
 C        -2.764148        -0.589489         1.100296
 C        -1.933202        -0.453894         2.408729
 C        -1.477741         0.777825         1.814339
 C        -2.886760         0.937522         1.030455
 C        -1.898784         1.493628        -0.136350
 C        -0.948444         0.493587         0.398502
 O         0.422613         0.544718        -0.063867
 C        -1.555477        -0.869174         0.055643
 H        -4.670005        -1.359352         0.903708
 H        -2.698206        -0.317906         3.240716
 H        -1.110803        -1.210687         2.528762
 H        -1.301533         1.762175         2.401156
 H        -3.819007         1.499270         1.133586
 H        -2.086568         1.662015        -1.229763
 H        -1.707154         2.580073         0.202623
 H         0.991555         0.714550         0.690897
 H        -1.627821        -0.901486        -1.014057
 H        -1.089020        -1.723271         0.456389
