19
Iteration:  3004
 O        -3.853972        -1.336214         0.919930
 C        -2.662712        -0.619387         1.119600
 C        -1.886651        -0.538350         2.514055
 C        -1.478934         0.785261         1.931728
 C        -2.802203         0.910621         1.160652
 C        -2.125220         1.451408        -0.063309
 C        -0.913691         0.620405         0.419242
 O         0.347244         0.482084        -0.217473
 C        -1.447397        -0.868558         0.271237
 H        -3.874166        -1.805515         0.032093
 H        -2.655030        -0.344355         3.265623
 H        -1.232593        -1.370808         2.796227
 H        -1.129001         1.565555         2.602585
 H        -3.766498         0.911432         1.587691
 H        -2.488707         1.237796        -1.085405
 H        -1.856645         2.537949        -0.049855
 H         0.549590         1.218679        -0.857846
 H        -1.628767        -1.057698        -0.748991
 H        -0.761018        -1.605221         0.653620
