19
Iteration:  3808
 O        -3.881155        -1.302048         0.890294
 C        -2.670809        -0.679562         1.142771
 C        -1.980897        -0.502786         2.530775
 C        -1.454103         0.767708         1.896315
 C        -2.771624         0.943405         1.148865
 C        -2.037304         1.332847        -0.086071
 C        -0.926019         0.473321         0.347659
 O         0.410647         0.740509        -0.095623
 C        -1.516465        -0.929192         0.124884
 H        -4.469611        -1.270592         1.706956
 H        -2.693433        -0.215780         3.351377
 H        -1.448895        -1.406897         2.924094
 H        -0.700898         1.577601         2.301796
 H        -3.781280         1.277117         1.437681
 H        -2.444981         1.129051        -1.113367
 H        -1.787633         2.396609        -0.023795
 H         1.047924         0.000954        -0.346976
 H        -1.777926        -1.017681        -0.998266
 H        -0.879464        -1.827217         0.447747
