19
Iteration:  4491charge 0 multiplicity 1
 O        -3.829796        -1.539421         1.184936
 C        -2.738092        -0.597825         1.072923
 C        -1.902746        -0.496786         2.343188
 C        -1.450348         0.856987         1.841363
 C        -2.800180         1.041619         1.099976
 C        -1.939747         1.464211        -0.152197
 C        -0.949466         0.440106         0.328632
 O         0.461699         0.633596         0.184790
 C        -1.717577        -0.893981        -0.013579
 H        -4.436363        -1.653138         0.470297
 H        -2.610602        -0.281103         3.236255
 H        -1.136785        -1.323779         2.614591
 H        -0.854774         1.552436         2.387675
 H        -3.672598         1.648290         1.469121
 H        -2.193288         1.325955        -1.246976
 H        -1.596498         2.495121        -0.154597
 H         0.976264         0.256897        -0.500275
 H        -2.064543        -0.910064        -1.014789
 H        -1.293209        -1.871279         0.267530
