19
Iteration:  1518charge 0 multiplicity 1
 O        -3.853793        -1.395188         1.013681
 C        -2.719981        -0.632006         1.174568
 C        -1.860138        -0.536262         2.537371
 C        -1.382434         0.773650         1.821469
 C        -2.782144         0.946193         1.083343
 C        -2.109473         1.288849        -0.270720
 C        -0.903614         0.424074         0.314094
 O         0.351297         0.875594        -0.112432
 C        -1.532978        -0.957769         0.296138
 H        -4.607410        -0.715745         1.012735
 H        -2.495222        -0.290133         3.400181
 H        -1.272594        -1.475889         2.707269
 H        -0.941911         1.639653         2.354441
 H        -3.660745         1.460817         1.508841
 H        -2.711620         0.870755        -1.066786
 H        -1.898286         2.309058        -0.605948
 H         1.072902         0.405764         0.316260
 H        -1.725552        -1.345310        -0.703766
 H        -0.979927        -1.701782         0.847017
