19
Iteration:  2027charge 0 multiplicity 1
 O        -3.911171        -1.303121         0.909256
 C        -2.693836        -0.614186         1.221886
 C        -1.862428        -0.423709         2.526032
 C        -1.400019         0.829862         1.850770
 C        -2.773104         0.942891         1.097537
 C        -2.154829         1.257260        -0.189766
 C        -0.949714         0.469165         0.384903
 O         0.367493         0.722839        -0.109040
 C        -1.476112        -0.977825         0.248782
 H        -3.827382        -2.140463         0.466471
 H        -2.479562        -0.166349         3.417992
 H        -1.183439        -1.275218         2.803082
 H        -0.939917         1.733611         2.298629
 H        -3.697283         1.494418         1.481290
 H        -2.686719         0.983635        -1.147098
 H        -1.982056         2.319557        -0.370870
 H         0.996259         0.166014         0.430006
 H        -1.693132        -1.260844        -0.795842
 H        -0.843675        -1.839781         0.599134
