19
Iteration:  4890charge 0 multiplicity 1
 O        -3.914172        -1.240845         0.996245
 C        -2.686355        -0.631790         1.135175
 C        -1.979320        -0.613241         2.483825
 C        -1.446510         0.772450         1.865070
 C        -2.687068         0.936963         1.023206
 C        -2.039035         1.463289        -0.118253
 C        -0.945591         0.478151         0.382438
 O         0.315491         0.748436        -0.071213
 C        -1.504919        -0.979909         0.232069
 H        -3.740617        -2.134248         0.700341
 H        -2.682339        -0.627266         3.389670
 H        -1.217011        -1.397277         2.727821
 H        -0.929898         1.537701         2.361290
 H        -3.686627         1.296709         1.499382
 H        -2.294126         1.263183        -1.110475
 H        -1.500327         2.412936        -0.034985
 H         0.641515        -0.106430        -0.278011
 H        -1.647160        -1.296510        -0.869175
 H        -0.660401        -1.643356         0.443618
