19
Iteration:  1162
 O        -3.864851        -1.368864         0.740024
 C        -2.665670        -0.612351         1.164350
 C        -1.860775        -0.629687         2.565349
 C        -1.362376         0.725821         1.987355
 C        -2.724784         1.000132         1.298975
 C        -2.159253         1.487611         0.056193
 C        -0.959630         0.524660         0.351509
 O         0.268798         0.523265        -0.335980
 C        -1.504788        -0.802969         0.245739
 H        -3.585320        -2.180327         0.314055
 H        -2.441155        -0.420924         3.508738
 H        -1.120760        -1.419556         2.874833
 H        -0.826716         1.563891         2.399890
 H        -3.535226         1.482171         1.771575
 H        -2.824968         1.294729        -0.816007
 H        -1.953140         2.603426         0.027237
 H         0.458379         1.473896        -0.570728
 H        -1.627252        -0.941810        -0.860436
 H        -0.916487        -1.728948         0.514762
