19
Iteration:  3413
 O        -3.770944        -1.578423         1.061453
 C        -2.704878        -0.626584         1.191517
 C        -1.939133        -0.495978         2.512621
 C        -1.444783         0.766573         1.801678
 C        -2.773725         1.102398         1.111578
 C        -1.976578         1.545615        -0.186562
 C        -0.981629         0.470725         0.272612
 O         0.375378         0.621384        -0.003188
 C        -1.627882        -0.900007         0.129510
 H        -3.992071        -1.692497         0.106576
 H        -2.563769        -0.145964         3.293564
 H        -1.416676        -1.417223         2.601393
 H        -0.939176         1.563296         2.295801
 H        -3.500454         1.780771         1.607469
 H        -2.389886         1.447700        -1.255141
 H        -1.651757         2.572645        -0.098312
 H         0.648912         0.076801         0.729305
 H        -2.175339        -0.935651        -0.772769
 H        -1.056579        -1.774469         0.239322
