19
Iteration:  2504
 O        -3.805607        -1.503488         0.969283
 C        -2.799761        -0.563760         1.178846
 C        -2.120690        -0.489840         2.548394
 C        -1.233820         0.639817         1.924882
 C        -2.724857         0.985389         1.146412
 C        -2.067495         1.490957        -0.164492
 C        -0.905561         0.455106         0.465395
 O         0.366054         0.690349        -0.299783
 C        -1.517000        -0.900702         0.262805
 H        -4.094452        -1.448988         0.036295
 H        -2.748321        -0.096850         3.384720
 H        -1.660499        -1.517570         2.790058
 H        -0.656398         1.397887         2.541094
 H        -3.627891         1.483648         1.590033
 H        -2.652349         0.946508        -0.945194
 H        -1.696613         2.556432        -0.256365
 H         0.561925         1.674733        -0.363053
 H        -1.763335        -1.099490        -0.842446
 H        -0.947063        -1.776401         0.676038
