19
Iteration:  1851
 O        -3.836600        -1.454186         0.819379
 C        -2.756349        -0.659679         1.262623
 C        -2.000550        -0.534497         2.626269
 C        -1.363690         0.733735         1.896734
 C        -2.708850         0.937707         1.175750
 C        -2.040870         1.525059        -0.101424
 C        -0.912534         0.489594         0.302265
 O         0.335791         0.618037        -0.230304
 C        -1.535405        -0.836982         0.209225
 H        -3.771508        -2.291172         1.246884
 H        -2.697655        -0.068580         3.365918
 H        -1.415057        -1.379694         3.002048
 H        -0.839099         1.515026         2.394325
 H        -3.439879         1.589356         1.577429
 H        -2.425041         1.379114        -1.123497
 H        -1.920377         2.546560         0.203435
 H         0.430337         1.476353        -0.715248
 H        -1.955551        -1.074597        -0.767967
 H        -0.885788        -1.659674         0.594855
