19
Iteration:  3426
 O        -3.757575        -1.629638         1.027564
 C        -2.768831        -0.634264         1.149130
 C        -2.045433        -0.426762         2.517676
 C        -1.356377         0.786583         1.855767
 C        -2.687490         1.055350         1.103041
 C        -1.974731         1.559286        -0.132310
 C        -0.978628         0.485742         0.339910
 O         0.317232         0.595906        -0.090041
 C        -1.651854        -0.834174         0.123704
 H        -3.854924        -1.802098         0.078032
 H        -2.747027        -0.130360         3.285362
 H        -1.417616        -1.060086         3.142130
 H        -0.700439         1.475718         2.358934
 H        -3.577435         1.432521         1.516385
 H        -2.504177         1.453138        -1.112330
 H        -1.474250         2.532585         0.004418
 H         0.960478        -0.058929         0.305569
 H        -1.869628        -1.125449        -0.881675
 H        -0.965420        -1.561661         0.489816
