19
Iteration:  2501charge 0 multiplicity 1
 O        -3.805078        -1.479028         0.942886
 C        -2.789424        -0.568804         1.190335
 C        -2.111366        -0.484859         2.530266
 C        -1.249238         0.655351         1.901023
 C        -2.696841         0.980157         1.161565
 C        -2.071956         1.464124        -0.143528
 C        -0.895432         0.431398         0.457450
 O         0.332981         0.690759        -0.300547
 C        -1.516743        -0.907787         0.281451
 H        -4.095318        -1.369234        -0.021755
 H        -2.746248        -0.117720         3.333455
 H        -1.619303        -1.443886         2.839802
 H        -0.715284         1.392565         2.592923
 H        -3.637638         1.471771         1.662638
 H        -2.605528         0.943295        -0.986451
 H        -1.790783         2.579808        -0.211408
 H         0.552234         1.626706        -0.341238
 H        -1.689614        -1.133407        -0.784980
 H        -0.875934        -1.660087         0.764871
