19
Iteration:  2386
 O        -3.812340        -1.608786         1.234494
 C        -2.784092        -0.689112         1.129055
 C        -1.919449        -0.459380         2.534631
 C        -1.492222         0.769763         1.809205
 C        -2.831180         0.981232         0.974586
 C        -1.940866         1.581898        -0.154114
 C        -0.905129         0.558398         0.359519
 O         0.410430         0.531127        -0.060264
 C        -1.634990        -0.794849         0.007139
 H        -4.090765        -2.010234         0.346157
 H        -2.580645        -0.272838         3.389169
 H        -1.062495        -1.078202         2.845145
 H        -1.018154         1.623248         2.379190
 H        -3.631502         1.635977         1.370449
 H        -2.281516         1.603429        -1.189749
 H        -1.637545         2.575827         0.143676
 H         0.983060         0.524961         0.711246
 H        -2.024778        -0.618389        -1.023870
 H        -0.884895        -1.609069        -0.004283
