19
Iteration:  1125
 O        -3.820024        -1.449929         0.931495
 C        -2.692617        -0.634008         1.156997
 C        -2.067366        -0.636154         2.648508
 C        -1.374731         0.652167         2.022292
 C        -2.677524         0.942694         1.198226
 C        -1.988370         1.525564         0.005969
 C        -0.914575         0.472702         0.328702
 O         0.250668         0.702039        -0.461908
 C        -1.479984        -0.849935         0.181062
 H        -4.056119        -1.450319         0.029405
 H        -2.862355        -0.347982         3.356931
 H        -1.471261        -1.484607         3.047766
 H        -0.878709         1.416131         2.654193
 H        -3.554240         1.575217         1.595520
 H        -2.710694         1.615502        -0.890383
 H        -1.559442         2.546829         0.252785
 H         0.459495         1.633313        -0.187255
 H        -1.836176        -1.109204        -0.831656
 H        -0.828685        -1.595529         0.618073
