19
Iteration:  1032charge 0 multiplicity 1
 O        -3.752787        -1.520557         1.279156
 C        -2.693886        -0.654141         1.173891
 C        -1.858272        -0.588452         2.423041
 C        -1.480436         0.714591         1.788559
 C        -2.874094         0.937184         1.079709
 C        -2.038848         1.665524        -0.087042
 C        -0.949105         0.559182         0.249514
 O         0.412029         0.476209        -0.048093
 C        -1.651221        -0.707937        -0.028481
 H        -4.090357        -1.861371         0.380323
 H        -2.435547        -0.501903         3.357070
 H        -1.126247        -1.414070         2.562440
 H        -0.960092         1.607291         2.328539
 H        -3.712838         1.352582         1.568955
 H        -2.528568         1.620398        -1.101499
 H        -1.817633         2.739805         0.121559
 H         0.964270         0.845438         0.655802
 H        -2.191650        -0.773138        -0.995619
 H        -0.849243        -1.506936        -0.087683
