19
Iteration:  2252
 O        -3.691378        -1.597535         1.174476
 C        -2.696660        -0.663507         1.158348
 C        -1.898207        -0.378007         2.451193
 C        -1.497255         0.884796         1.751529
 C        -2.851934         1.018054         1.072585
 C        -2.154980         1.564137        -0.263807
 C        -0.919729         0.520383         0.334078
 O         0.487262         0.421428         0.088092
 C        -1.717139        -0.811499         0.063732
 H        -3.734367        -1.865155         0.226623
 H        -2.427422        -0.313411         3.421571
 H        -1.036367        -1.103283         2.570829
 H        -1.015366         1.850579         2.107205
 H        -3.737658         1.536656         1.547041
 H        -2.472948         1.389855        -1.282391
 H        -1.630054         2.487223        -0.056914
 H         0.836956         0.372963         0.980412
 H        -2.363743        -0.927687        -0.863863
 H        -1.071331        -1.711594         0.015024
