19
Iteration:  1837
 O        -3.698182        -1.406299         0.653450
 C        -2.648923        -0.594126         1.243634
 C        -2.001281        -0.525506         2.693666
 C        -1.374649         0.739232         1.948796
 C        -2.793025         1.009347         1.191433
 C        -2.071465         1.469964        -0.068932
 C        -0.986229         0.518087         0.366014
 O         0.300791         0.535332        -0.348148
 C        -1.550337        -0.887090         0.314870
 H        -4.125949        -2.008070         1.387509
 H        -2.556056        -0.298059         3.605765
 H        -1.367653        -1.366512         2.939846
 H        -0.882277         1.510900         2.613431
 H        -3.727985         1.313206         1.734796
 H        -2.590265         1.306564        -1.005160
 H        -1.562192         2.484407        -0.041905
 H         0.374778         1.414715        -0.723375
 H        -2.016629        -1.094427        -0.617944
 H        -0.824087        -1.570720         0.599860
