19
Iteration:  3121
 O        -3.922158        -1.464351         1.000197
 C        -2.675333        -0.653815         1.115858
 C        -1.863652        -0.540603         2.510820
 C        -1.442936         0.755158         1.845682
 C        -2.790322         0.964867         1.089956
 C        -2.092930         1.475335        -0.141822
 C        -0.921155         0.473869         0.367860
 O         0.435649         0.658623        -0.044632
 C        -1.560319        -0.946406         0.137546
 H        -4.505967        -0.893418         1.595259
 H        -2.578846        -0.575746         3.336208
 H        -1.121286        -1.364627         2.707296
 H        -0.961771         1.691004         2.200778
 H        -3.632937         1.534186         1.599034
 H        -2.394941         1.301408        -1.184462
 H        -1.607740         2.474955        -0.102740
 H         0.657451         1.558605        -0.404716
 H        -1.882253        -1.041909        -0.985858
 H        -0.779930        -1.626885         0.509057
