19
Iteration:  1679
 O        -3.869219        -1.326781         0.910289
 C        -2.765037        -0.613059         1.217954
 C        -2.023597        -0.531984         2.568674
 C        -1.285902         0.730830         1.896343
 C        -2.761025         0.957363         1.141795
 C        -2.099060         1.325072        -0.168427
 C        -0.905224         0.471908         0.348813
 O         0.362478         0.746761        -0.273143
 C        -1.522851        -0.940951         0.317478
 H        -3.603723        -2.284123         0.866212
 H        -2.644937        -0.141009         3.403547
 H        -1.397902        -1.382432         2.903105
 H        -0.901696         1.452985         2.559698
 H        -3.483431         1.556756         1.653234
 H        -2.350257         0.909438        -1.206666
 H        -1.815879         2.388520        -0.283960
 H         0.592134         1.667144        -0.427762
 H        -1.861372        -1.398471        -0.650360
 H        -0.828761        -1.754131         0.779717
