19
Iteration:  4835charge 0 multiplicity 1
 O        -3.761774        -1.502026         1.080926
 C        -2.745510        -0.586642         1.118543
 C        -1.890548        -0.499145         2.494113
 C        -1.432716         0.741479         1.844166
 C        -2.771568         1.042741         1.068876
 C        -1.980016         1.467633        -0.233869
 C        -0.981769         0.481141         0.305408
 O         0.370455         0.606403         0.140398
 C        -1.646761        -0.860882         0.102945
 H        -4.347691        -1.324872         0.344617
 H        -2.616586        -0.291369         3.351699
 H        -1.141067        -1.233090         2.899795
 H        -0.859536         1.405271         2.465461
 H        -3.770694         1.460602         1.544083
 H        -2.304629         1.283052        -1.232265
 H        -1.373246         2.376809        -0.191002
 H         0.694470         0.395947        -0.744568
 H        -2.231898        -0.843166        -0.849291
 H        -1.150019        -1.818068         0.152529
