19
Iteration:  3813
 O        -3.899463        -1.350343         0.909857
 C        -2.690958        -0.675408         1.116255
 C        -1.981678        -0.520652         2.562515
 C        -1.471788         0.819052         1.908008
 C        -2.783087         0.933383         1.135969
 C        -2.021447         1.404010        -0.115795
 C        -0.923563         0.444316         0.332880
 O         0.455055         0.705966        -0.119613
 C        -1.531426        -0.892913         0.140112
 H        -4.474457        -1.424542         1.661457
 H        -2.682655        -0.396931         3.390471
 H        -1.339588        -1.342328         2.869205
 H        -0.983190         1.586471         2.455292
 H        -3.703138         1.317655         1.599170
 H        -2.351244         1.120618        -1.102255
 H        -1.640703         2.435716         0.028514
 H         0.993415        -0.031636        -0.370305
 H        -1.881586        -0.994668        -0.847700
 H        -0.730563        -1.575950         0.374616
