19
Iteration:  1739
 O        -3.799117        -1.527028         1.320468
 C        -2.748514        -0.664506         1.130760
 C        -1.820054        -0.578714         2.313473
 C        -1.468567         0.793186         1.781563
 C        -2.804922         0.997655         0.999912
 C        -2.059738         1.542227        -0.233957
 C        -0.926999         0.575206         0.298015
 O         0.429904         0.485478         0.182420
 C        -1.741872        -0.747465        -0.006276
 H        -3.603025        -2.447407         0.932219
 H        -2.259357        -0.700054         3.304173
 H        -0.940648        -1.230904         2.246867
 H        -1.052858         1.710923         2.321522
 H        -3.665415         1.646485         1.301558
 H        -2.286032         1.344295        -1.243321
 H        -1.760000         2.580501        -0.057416
 H         0.825849         1.364185         0.319130
 H        -2.224705        -0.609479        -0.938946
 H        -1.034469        -1.495231         0.051234
