19
Iteration:  3396charge 0 multiplicity 1
 O        -3.857316        -1.465219         1.187492
 C        -2.759291        -0.621632         1.117692
 C        -1.858036        -0.584367         2.399242
 C        -1.463564         0.822510         1.804065
 C        -2.807835         0.980229         1.022803
 C        -2.063748         1.466735        -0.208013
 C        -0.913377         0.506894         0.367654
 O         0.499414         0.634437         0.073203
 C        -1.713118        -0.860642         0.061491
 H        -4.099309        -1.511992         0.249526
 H        -2.435844        -0.557855         3.383424
 H        -0.916068        -1.195204         2.504306
 H        -0.843359         1.619222         2.303235
 H        -3.686965         1.401057         1.467053
 H        -2.492573         1.272765        -1.163267
 H        -1.672690         2.502415        -0.069929
 H         1.133940         0.420484         0.735878
 H        -2.000108        -0.907791        -1.043404
 H        -1.068288        -1.748484         0.360918
