19
Iteration:  3716
 O        -3.750186        -1.594235         1.051385
 C        -2.722647        -0.641789         1.136179
 C        -1.936742        -0.485681         2.494579
 C        -1.473111         0.774793         1.888496
 C        -2.843195         1.034640         1.064033
 C        -2.012836         1.617206        -0.152868
 C        -0.917938         0.472804         0.342079
 O         0.464869         0.523225        -0.045697
 C        -1.653471        -0.804307         0.003763
 H        -4.482812        -1.214216         1.515655
 H        -2.558218        -0.254855         3.393879
 H        -1.305084        -1.423551         2.663545
 H        -0.938572         1.533683         2.360925
 H        -3.708554         1.574553         1.434833
 H        -2.456753         1.830450        -1.186013
 H        -1.653501         2.654823         0.216110
 H         0.783809        -0.066353         0.651079
 H        -2.071041        -0.842515        -1.012494
 H        -1.069436        -1.757801         0.219829
