19
Iteration:  1937
 O        -3.740697        -1.558226         1.107968
 C        -2.725972        -0.612605         1.143307
 C        -1.831808        -0.467839         2.452383
 C        -1.473874         0.850832         1.769763
 C        -2.816505         0.957597         1.079528
 C        -2.108152         1.504675        -0.203095
 C        -0.961354         0.483307         0.302292
 O         0.457617         0.562154         0.058151
 C        -1.639560        -0.817468         0.030476
 H        -4.601282        -1.200271         1.411802
 H        -2.557087        -0.247970         3.259164
 H        -1.137306        -1.262779         2.674836
 H        -0.950655         1.702465         2.164832
 H        -3.608013         1.422957         1.626275
 H        -2.595701         1.403167        -1.186025
 H        -1.765856         2.548639        -0.151808
 H         0.835778         0.109998         0.835460
 H        -2.102683        -1.157259        -0.854574
 H        -1.045217        -1.650037         0.333164
