19
Iteration:     6charge 0 multiplicity 1
 O        -3.769285        -1.567542         1.007560
 C        -2.686414        -0.635702         1.190177
 C        -1.946733        -0.436488         2.483898
 C        -1.406460         0.791991         1.815544
 C        -2.768425         0.950403         1.092047
 C        -2.018327         1.450781        -0.182151
 C        -0.958941         0.483296         0.328614
 O         0.363240         0.709690        -0.098608
 C        -1.629868        -0.867674         0.157983
 H        -4.395386        -1.201862         1.709044
 H        -2.520649        -0.289752         3.422525
 H        -1.393224        -1.353444         2.799867
 H        -0.982848         1.610019         2.417404
 H        -3.606142         1.485106         1.610735
 H        -2.642499         1.373157        -1.106502
 H        -1.749793         2.529169        -0.067324
 H         0.912732        -0.028376         0.261969
 H        -2.016509        -1.040821        -0.860358
 H        -0.874599        -1.679182         0.296524
