19
Iteration:  3385
 O        -3.984678        -1.409059         1.260067
 C        -2.704517        -0.619520         1.044908
 C        -1.780255        -0.528480         2.327584
 C        -1.484679         0.798386         1.874170
 C        -2.794657         0.874085         1.025788
 C        -2.009159         1.411523        -0.179220
 C        -0.914375         0.546701         0.385377
 O         0.480359         0.657199         0.055858
 C        -1.596096        -0.852188         0.028698
 H        -4.502967        -1.604708         0.411559
 H        -2.444151        -0.463056         3.251483
 H        -1.067847        -1.407651         2.362697
 H        -1.004494         1.657679         2.418750
 H        -3.724217         1.288932         1.315182
 H        -2.354928         1.143487        -1.147966
 H        -1.989723         2.523428        -0.165128
 H         0.743025         0.468333         0.991057
 H        -1.910493        -0.794027        -1.070662
 H        -1.019314        -1.826567         0.170758
