19
Iteration:  4521
 O        -3.861706        -1.382807         1.183614
 C        -2.661717        -0.686295         1.159799
 C        -1.888527        -0.570678         2.416468
 C        -1.491838         0.775500         1.782132
 C        -2.863708         0.914279         1.018255
 C        -2.053410         1.545795        -0.229722
 C        -0.923209         0.524528         0.318726
 O         0.478075         0.522158         0.169568
 C        -1.577995        -0.805784         0.074625
 H        -4.444812        -1.241184         0.401028
 H        -2.478920        -0.404069         3.340864
 H        -1.237440        -1.336020         2.718039
 H        -0.934997         1.512643         2.358124
 H        -3.863152         1.352035         1.419479
 H        -2.253930         1.450954        -1.259988
 H        -1.789215         2.621990         0.001963
 H         0.950925         0.518825        -0.717625
 H        -2.149674        -0.884217        -0.890678
 H        -0.884471        -1.674707         0.182198
