19
Iteration:  1339
 O        -3.932648        -1.315534         0.973164
 C        -2.670753        -0.741872         1.175252
 C        -1.868694        -0.565453         2.544042
 C        -1.348576         0.756790         1.835344
 C        -2.742111         0.820637         1.099909
 C        -2.104210         1.329261        -0.140491
 C        -0.916372         0.448938         0.328129
 O         0.391470         0.879766        -0.080791
 C        -1.555721        -0.933424         0.190111
 H        -4.545890        -0.663302         1.336494
 H        -2.690423        -0.320357         3.321823
 H        -1.228219        -1.385326         3.000273
 H        -0.801033         1.590999         2.441332
 H        -3.679103         1.262251         1.559725
 H        -2.559675         1.106781        -1.174219
 H        -1.731350         2.381950        -0.065122
 H         0.531131         0.964351        -1.051001
 H        -2.044073        -1.038227        -0.834657
 H        -0.862537        -1.786422         0.470452
