19
Iteration:  2543charge 0 multiplicity 1
 O        -3.848316        -1.478285         1.211864
 C        -2.668271        -0.673887         1.070797
 C        -1.842397        -0.520605         2.433608
 C        -1.440671         0.816151         1.846534
 C        -2.860623         0.928575         1.011081
 C        -1.989448         1.595089        -0.093710
 C        -0.966664         0.506183         0.386479
 O         0.380085         0.522882        -0.007963
 C        -1.617117        -0.891359         0.025615
 H        -4.164352        -1.787150         0.359287
 H        -2.398201        -0.471556         3.362691
 H        -1.060953        -1.263121         2.557569
 H        -1.006881         1.767425         2.263965
 H        -3.777451         1.302158         1.588948
 H        -2.320237         1.634208        -1.139151
 H        -1.572010         2.582599         0.174102
 H         0.663782         1.431162        -0.104199
 H        -2.009113        -0.743369        -0.965056
 H        -0.993625        -1.780378         0.155150
