19
Iteration:  1990charge 0 multiplicity 1
 O        -3.876579        -1.301421         0.935864
 C        -2.691362        -0.673986         1.176776
 C        -2.167379        -0.482377         2.651434
 C        -1.505614         0.840077         2.033592
 C        -2.771012         0.917148         1.041240
 C        -2.014744         1.358046        -0.107357
 C        -0.814616         0.468451         0.305758
 O         0.388166         0.808970        -0.439230
 C        -1.379964        -1.035742         0.368247
 H        -3.659560        -2.283492         1.045989
 H        -2.906749        -0.121751         3.344700
 H        -1.481209        -1.235941         2.967856
 H        -1.146473         1.590745         2.737093
 H        -3.652526         1.406752         1.331608
 H        -2.474395         1.208021        -1.071476
 H        -1.640305         2.398138         0.109190
 H         0.703035        -0.063657        -0.743687
 H        -1.778324        -1.473246        -0.530762
 H        -0.764790        -1.710792         0.884260
