19
Iteration:  1709charge 0 multiplicity 1
 O        -3.788552        -1.439084         0.982288
 C        -2.663575        -0.709032         1.116593
 C        -1.819636        -0.401459         2.586423
 C        -1.487627         0.884542         1.834704
 C        -2.852745         0.935210         1.129865
 C        -2.140451         1.553904        -0.068599
 C        -0.977408         0.530410         0.312731
 O         0.356510         0.373017        -0.090239
 C        -1.576567        -0.842292         0.067723
 H        -3.539321        -2.338405         0.854075
 H        -2.536643        -0.263970         3.435932
 H        -0.919135        -0.908605         2.984998
 H        -1.179438         1.777366         2.298613
 H        -3.628032         1.442925         1.603155
 H        -2.391688         1.440338        -1.146061
 H        -1.820702         2.578280         0.103932
 H         1.060111         1.017576         0.156573
 H        -1.956018        -1.029562        -0.980190
 H        -0.719954        -1.564957         0.329081
