19
Iteration:  1505
 O        -3.947212        -1.236075         0.945426
 C        -2.667202        -0.629203         1.262358
 C        -1.888985        -0.529390         2.524011
 C        -1.369994         0.788068         1.810489
 C        -2.706468         0.896300         1.131676
 C        -2.212480         1.122407        -0.290530
 C        -0.941558         0.451128         0.346177
 O         0.318961         0.945758        -0.089168
 C        -1.395821        -1.060837         0.239261
 H        -4.606951        -0.577571         0.944121
 H        -2.387587        -0.317029         3.486003
 H        -1.094034        -1.248999         2.820244
 H        -0.812480         1.515190         2.259449
 H        -3.527013         1.354368         1.567090
 H        -2.606018         0.585972        -1.202048
 H        -2.009361         2.169353        -0.424522
 H         0.972732         0.418468         0.465596
 H        -1.755157        -1.348668        -0.734520
 H        -0.688305        -1.836734         0.502454
