19
Iteration:   896charge 0 multiplicity 1
 O        -3.751204        -1.773749         1.414945
 C        -2.776515        -0.677516         1.015659
 C        -1.990365        -0.431935         2.342873
 C        -1.443975         0.818738         1.772957
 C        -2.785838         1.069195         1.111361
 C        -1.998053         1.685813        -0.087872
 C        -0.896724         0.521517         0.326335
 O         0.492860         0.582326         0.064002
 C        -1.708727        -0.795806        -0.152412
 H        -4.354879        -1.943342         0.712601
 H        -2.630388        -0.199763         3.273875
 H        -1.299502        -1.264785         2.689077
 H        -0.991951         1.626837         2.275785
 H        -3.711801         1.541054         1.601323
 H        -2.418348         1.695538        -1.102580
 H        -1.579065         2.691133         0.140301
 H         0.788103        -0.295019        -0.271254
 H        -2.084155        -0.819782        -1.242462
 H        -1.126633        -1.735701        -0.000765
