19
Iteration:  4958charge 0 multiplicity 1
 O        -3.825691        -1.428018         1.063261
 C        -2.715472        -0.578531         1.000599
 C        -1.940981        -0.561198         2.423709
 C        -1.440420         0.684842         1.869586
 C        -2.837691         1.006587         1.050109
 C        -1.972180         1.536478        -0.062075
 C        -1.001864         0.480779         0.336263
 O         0.431433         0.561127        -0.007429
 C        -1.592574        -0.873623         0.062568
 H        -3.898066        -1.558336         2.005577
 H        -2.563030        -0.570024         3.380296
 H        -1.143940        -1.345816         2.557090
 H        -0.880570         1.553551         2.281900
 H        -3.766819         1.475962         1.298195
 H        -2.448805         1.486938        -1.046433
 H        -1.566786         2.522788         0.247044
 H         0.779802         1.353785         0.465686
 H        -1.872339        -1.097692        -0.952735
 H        -1.070555        -1.781863         0.362780
