19
Iteration:  3248
 O        -3.901292        -1.425764         1.145768
 C        -2.731057        -0.599395         1.170482
 C        -1.949653        -0.626890         2.456577
 C        -1.357394         0.711288         1.754694
 C        -2.770796         0.963795         1.025892
 C        -1.962638         1.421172        -0.199279
 C        -0.918220         0.444448         0.353991
 O         0.472953         0.862188         0.106815
 C        -1.715788        -0.898572         0.076436
 H        -3.861747        -2.114913         0.512909
 H        -2.455309        -0.305108         3.396508
 H        -1.169507        -1.383509         2.649539
 H        -1.060979         1.643711         2.330530
 H        -3.592111         1.522631         1.655157
 H        -2.545571         1.272971        -1.172881
 H        -1.545610         2.458239        -0.235134
 H         0.807856         0.262049        -0.549600
 H        -2.348674        -0.925223        -0.758344
 H        -1.258047        -1.875767         0.147697
