19
Iteration:   206
 O        -3.640859        -1.756890         1.315624
 C        -2.727523        -0.630145         1.115318
 C        -1.860892        -0.484938         2.367265
 C        -1.448614         0.831409         1.762275
 C        -2.882466         1.145256         1.045782
 C        -1.983558         1.601744        -0.121692
 C        -1.006985         0.532683         0.310622
 O         0.392864         0.389297         0.083594
 C        -1.755642        -0.718490        -0.073221
 H        -4.213041        -1.783277         0.585888
 H        -2.412965        -0.517449         3.322245
 H        -0.960767        -1.161724         2.431750
 H        -1.041670         1.652426         2.338525
 H        -3.667957         1.690883         1.425190
 H        -2.471253         1.720069        -1.193188
 H        -1.752446         2.613529         0.161388
 H         0.896377         1.028522         0.602778
 H        -2.114052        -0.619451        -1.125398
 H        -1.054832        -1.573755        -0.130563
