19
Iteration:  2908
 O        -3.829557        -1.623634         1.199364
 C        -2.659210        -0.600484         1.093148
 C        -1.829141        -0.476745         2.359489
 C        -1.479409         0.890893         1.794724
 C        -2.862455         0.969812         1.003303
 C        -2.083388         1.570110        -0.085577
 C        -0.935749         0.583768         0.350423
 O         0.405663         0.405190         0.026354
 C        -1.579169        -0.808473         0.053154
 H        -4.547697        -1.307399         0.545165
 H        -2.446222        -0.464811         3.260453
 H        -1.033983        -1.198540         2.340233
 H        -1.061824         1.775571         2.231914
 H        -3.767434         1.328537         1.376015
 H        -2.529967         1.730436        -1.029170
 H        -1.720370         2.523776         0.219237
 H         0.896378         0.553815         0.884255
 H        -1.756507        -0.891844        -1.028620
 H        -0.858897        -1.596083         0.439001
