19
Iteration:  1258charge 0 multiplicity 1
 O        -3.832691        -1.503758         1.007361
 C        -2.720585        -0.673655         1.135395
 C        -1.772661        -0.549543         2.449289
 C        -1.381807         0.823729         1.857699
 C        -2.810487         0.902915         1.181686
 C        -2.054267         1.537843        -0.082082
 C        -0.953005         0.525607         0.350377
 O         0.409609         0.661329        -0.044720
 C        -1.709206        -0.807912        -0.027091
 H        -4.318223        -1.529365         1.814141
 H        -2.533645        -0.555986         3.249816
 H        -1.078947        -1.372865         2.695778
 H        -0.925055         1.548012         2.415058
 H        -3.696180         1.345446         1.579573
 H        -2.345128         1.643316        -1.153538
 H        -1.769013         2.573303         0.293857
 H         0.831546        -0.239204        -0.055427
 H        -2.170222        -0.750585        -1.043403
 H        -1.150324        -1.769544         0.084132
