19
Iteration:  4075
 O        -4.002738        -1.205669         0.904633
 C        -2.651043        -0.720216         1.137979
 C        -1.955031        -0.674462         2.518558
 C        -1.425695         0.709170         1.902568
 C        -2.814597         0.906453         1.145605
 C        -2.050578         1.458200        -0.047474
 C        -0.839265         0.527134         0.377029
 O         0.423003         0.730064        -0.211332
 C        -1.490321        -0.922205         0.156991
 H        -4.247388        -2.122854         0.722011
 H        -2.515292        -0.229188         3.336628
 H        -1.213525        -1.390402         2.735558
 H        -1.171763         1.477868         2.644233
 H        -3.614745         1.386343         1.748969
 H        -2.581481         1.467666        -0.974236
 H        -1.763449         2.494417         0.066550
 H         1.112439         0.469465         0.424822
 H        -1.729097        -0.945828        -0.926399
 H        -1.035433        -1.878595         0.492735
