19
Iteration:  3045charge 0 multiplicity 1
 O        -3.773244        -1.594315         1.170916
 C        -2.754160        -0.633083         1.098997
 C        -2.073958        -0.552986         2.471848
 C        -1.387873         0.713329         1.824453
 C        -2.764620         1.015240         1.094361
 C        -1.883661         1.599497        -0.123326
 C        -0.941162         0.443813         0.314932
 O         0.401508         0.682051        -0.118195
 C        -1.686999        -0.856281         0.129212
 H        -3.640160        -2.221513         0.485530
 H        -2.661940        -0.024813         3.217419
 H        -1.479799        -1.404965         2.889405
 H        -0.845417         1.550879         2.327722
 H        -3.665863         1.593503         1.465092
 H        -2.379877         1.524286        -1.141280
 H        -1.486486         2.682402        -0.058703
 H         0.678006         1.392593         0.464336
 H        -2.179900        -0.925835        -0.913521
 H        -1.231394        -1.814497         0.367044
