19
Iteration:   789charge 0 multiplicity 1
 O        -3.978003        -1.189892         1.000433
 C        -2.735533        -0.692392         1.107434
 C        -1.900825        -0.578675         2.503869
 C        -1.389989         0.744395         1.901608
 C        -2.742097         0.882255         1.134972
 C        -2.049794         1.278010        -0.141601
 C        -0.885648         0.413614         0.415424
 O         0.349704         1.015063        -0.199548
 C        -1.501850        -1.118030         0.138182
 H        -4.133534        -1.730257         1.747383
 H        -2.534233        -0.275262         3.303770
 H        -1.317404        -1.475775         2.581200
 H        -0.876464         1.488380         2.384335
 H        -3.730077         1.323932         1.549698
 H        -2.432342         0.877149        -1.090957
 H        -1.673294         2.372262        -0.237081
 H         1.115361         0.668420         0.282517
 H        -1.745657        -1.121783        -0.916859
 H        -0.908972        -1.943528         0.524528
