19
Iteration:   726
 O        -3.550765        -1.747104         1.126074
 C        -2.731260        -0.611868         1.120553
 C        -1.920880        -0.402380         2.452143
 C        -1.510688         0.957129         1.921215
 C        -2.840756         1.057948         1.104336
 C        -2.038579         1.613435        -0.066820
 C        -0.981077         0.543629         0.268402
 O         0.463399         0.392414         0.017275
 C        -1.753753        -0.791955        -0.068220
 H        -4.485133        -1.636859         1.073458
 H        -2.486341        -0.215186         3.367288
 H        -1.242513        -1.326485         2.633663
 H        -1.104704         1.871123         2.301541
 H        -3.812688         1.551949         1.476316
 H        -2.421576         1.770177        -1.035405
 H        -1.534162         2.561747         0.292893
 H         0.481162        -0.436266        -0.470140
 H        -2.253990        -0.616919        -1.005998
 H        -1.155971        -1.731954        -0.029340
