19
Iteration:  2163charge 0 multiplicity 1
 O        -3.891363        -1.309442         0.930710
 C        -2.630059        -0.632623         1.243714
 C        -1.984732        -0.542586         2.574711
 C        -1.374838         0.804059         1.875090
 C        -2.732874         0.854221         1.100293
 C        -2.115200         1.287621        -0.236323
 C        -0.928316         0.498361         0.313357
 O         0.312298         0.829001        -0.175441
 C        -1.413876        -1.011957         0.272931
 H        -4.572032        -0.652001         0.704190
 H        -2.670709        -0.156686         3.348761
 H        -1.384499        -1.229720         3.175985
 H        -0.967497         1.682124         2.290609
 H        -3.602720         1.260869         1.528217
 H        -2.560612         0.880491        -1.130217
 H        -2.028276         2.383922        -0.264834
 H         0.948260         0.164286         0.082879
 H        -1.761098        -1.506802        -0.685069
 H        -0.726878        -1.699352         0.802526
