19
Iteration:  1490charge 0 multiplicity 1
 O        -4.006247        -1.101023         0.895473
 C        -2.636834        -0.791318         1.194616
 C        -1.793941        -0.424177         2.676235
 C        -1.336132         0.760475         1.866063
 C        -2.731625         0.782724         1.105524
 C        -2.178327         1.070979        -0.241242
 C        -0.946451         0.390058         0.283003
 O         0.258684         0.976336        -0.067073
 C        -1.364731        -1.050218         0.154730
 H        -4.448725        -0.228784         1.071664
 H        -2.614073        -0.091717         3.323860
 H        -1.147582        -1.227452         3.010918
 H        -0.868955         1.718700         2.315586
 H        -3.673891         1.212138         1.620901
 H        -2.764292         0.470315        -1.001487
 H        -2.099814         2.134851        -0.576883
 H         1.085370         0.698771         0.364596
 H        -1.719856        -1.270955        -0.895365
 H        -0.685752        -1.756391         0.707740
