19
Iteration:  1319
 O        -3.904761        -1.330179         0.829721
 C        -2.696571        -0.657680         1.204119
 C        -2.011360        -0.523137         2.675250
 C        -1.340710         0.647320         1.927353
 C        -2.691899         0.877349         1.255875
 C        -2.044240         1.376219        -0.102013
 C        -0.903314         0.443951         0.351080
 O         0.277897         0.910046        -0.319885
 C        -1.393306        -1.022928         0.223697
 H        -4.576545        -0.681282         0.791092
 H        -2.669641        -0.176941         3.493625
 H        -1.440858        -1.420346         2.969862
 H        -0.920814         1.428043         2.665086
 H        -3.540167         1.484142         1.625906
 H        -2.605224         1.019136        -0.985302
 H        -1.839578         2.415825        -0.111980
 H         0.167399         0.624033        -1.264566
 H        -1.636814        -1.423270        -0.779811
 H        -0.678762        -1.717229         0.678789
