19
Iteration:   280charge 0 multiplicity 1
 O        -3.896950        -1.363690         0.938274
 C        -2.684664        -0.616732         1.187968
 C        -1.933792        -0.637205         2.601488
 C        -1.325473         0.703623         1.969156
 C        -2.709324         0.921647         1.192628
 C        -2.097194         1.420262        -0.070009
 C        -0.934134         0.502655         0.341985
 O         0.281243         0.750407        -0.304410
 C        -1.496151        -0.917517         0.181033
 H        -4.174936        -1.384245        -0.034861
 H        -2.539510        -0.368169         3.488763
 H        -1.390673        -1.573130         2.937012
 H        -0.727602         1.384606         2.604429
 H        -3.519001         1.431201         1.558581
 H        -2.528180         1.153186        -1.091275
 H        -1.853878         2.466272        -0.125442
 H         0.555419         1.690372        -0.465982
 H        -1.722096        -1.297694        -0.879279
 H        -0.833989        -1.692246         0.684348
