19
Iteration:   423
 O        -3.824124        -1.513589         1.124023
 C        -2.691044        -0.677039         1.093512
 C        -1.796599        -0.573047         2.453882
 C        -1.469903         0.791502         1.846060
 C        -2.838709         0.928860         1.158660
 C        -2.044247         1.557957        -0.056550
 C        -0.955779         0.565598         0.412147
 O         0.345087         0.557126        -0.168423
 C        -1.579681        -0.816165         0.034572
 H        -4.422479        -1.130146         0.392755
 H        -2.479451        -0.585917         3.303378
 H        -0.955663        -1.291361         2.600942
 H        -1.127869         1.601727         2.440997
 H        -3.598979         1.357544         1.684874
 H        -2.498574         1.266091        -1.020809
 H        -1.716934         2.599760        -0.052935
 H         0.987179         0.945171         0.447364
 H        -1.852421        -0.642493        -1.023349
 H        -0.912299        -1.640355         0.300878
