19
Iteration:  3452
 O        -3.826355        -1.480107         1.066132
 C        -2.770757        -0.581221         1.190263
 C        -2.124938        -0.541979         2.509676
 C        -1.544243         0.814869         1.947279
 C        -2.758865         0.943057         1.059885
 C        -1.933240         1.463277        -0.067321
 C        -0.879497         0.554546         0.342420
 O         0.445357         0.656638        -0.295751
 C        -1.489985        -0.886549         0.225242
 H        -3.759182        -1.815826         0.174591
 H        -2.803872        -0.264590         3.410659
 H        -1.485708        -1.291466         3.090744
 H        -1.062432         1.627444         2.600385
 H        -3.673153         1.453796         1.513153
 H        -2.349648         1.362545        -1.045196
 H        -1.563110         2.517591         0.029165
 H         0.742320        -0.277544        -0.408786
 H        -1.904195        -0.992531        -0.871474
 H        -0.778503        -1.811431         0.361216
