19
Iteration:  2966
 O        -3.949375        -1.411402         0.978655
 C        -2.700677        -0.644450         1.179288
 C        -1.898654        -0.473886         2.508330
 C        -1.313850         0.698399         1.831673
 C        -2.730362         0.982973         1.164286
 C        -2.071590         1.333950        -0.183252
 C        -0.916261         0.441148         0.363432
 O         0.429701         0.814640        -0.045948
 C        -1.675953        -0.979731         0.118897
 H        -3.791402        -1.530380         0.059549
 H        -2.527285        -0.217216         3.380657
 H        -1.219942        -1.298028         2.814119
 H        -0.795164         1.385972         2.515387
 H        -3.492423         1.383173         1.903433
 H        -2.647996         0.937145        -1.069268
 H        -1.721342         2.391699        -0.336748
 H         0.555933         1.728884         0.227348
 H        -1.975056        -1.102679        -0.978892
 H        -1.135400        -1.912235         0.440829
