19
Iteration:   500
 O        -3.933395        -1.271011         1.010159
 C        -2.671966        -0.658707         1.148268
 C        -1.823868        -0.651530         2.528043
 C        -1.417628         0.700671         1.824318
 C        -2.760500         0.875275         1.206148
 C        -2.115934         1.406328        -0.108415
 C        -0.953232         0.497819         0.356134
 O         0.422814         0.820872        -0.090591
 C        -1.573643        -0.864074         0.109839
 H        -3.918966        -2.228836         0.935138
 H        -2.342048        -0.511052         3.486197
 H        -1.058329        -1.442732         2.622521
 H        -0.933599         1.527295         2.317552
 H        -3.601168         1.244238         1.630458
 H        -2.450333         1.176766        -1.166505
 H        -1.811261         2.455882         0.007064
 H         0.281560         0.687972        -1.073894
 H        -2.000250        -1.073699        -0.948053
 H        -0.947697        -1.769849         0.381171
