19
Iteration:  2138charge 0 multiplicity 1
 O        -3.833781        -1.452290         0.793224
 C        -2.701881        -0.557930         1.266599
 C        -1.901314        -0.430494         2.552118
 C        -1.376589         0.741706         1.809304
 C        -2.718504         1.044301         1.150284
 C        -2.169019         1.269875        -0.223522
 C        -0.909472         0.398396         0.319506
 O         0.356267         0.806035        -0.110927
 C        -1.544450        -0.978769         0.274524
 H        -4.566120        -1.525634         1.497187
 H        -2.465510        -0.096699         3.459854
 H        -1.239861        -1.171745         3.066103
 H        -0.818873         1.592506         2.175016
 H        -3.504279         1.615428         1.642777
 H        -2.834023         0.843359        -1.013058
 H        -1.800249         2.306999        -0.405350
 H         1.014904         0.615186         0.557429
 H        -1.930216        -1.234839        -0.735655
 H        -1.109642        -1.925974         0.706997
