19
Iteration:  3159charge 0 multiplicity 1
 O        -3.805560        -1.521251         0.876462
 C        -2.718195        -0.603575         1.163655
 C        -2.107199        -0.512518         2.639260
 C        -1.319872         0.686980         1.916039
 C        -2.726995         1.074768         1.125630
 C        -1.971823         1.432505        -0.165007
 C        -0.929487         0.498281         0.392770
 O         0.361648         0.657418        -0.160904
 C        -1.575275        -0.849381         0.145442
 H        -3.694787        -2.157873         1.555711
 H        -2.900043        -0.088114         3.293604
 H        -1.434039        -1.259676         3.025815
 H        -0.803807         1.515113         2.438873
 H        -3.477688         1.597898         1.725637
 H        -2.428385         1.230260        -1.182831
 H        -1.644253         2.534337        -0.028662
 H         0.162196         1.157991        -0.930178
 H        -2.080036        -1.087728        -0.725857
 H        -1.157309        -1.829506         0.429293
