19
Iteration:   301
 O        -3.740152        -1.410965         0.783609
 C        -2.705828        -0.682930         1.254196
 C        -2.077415        -0.523403         2.571349
 C        -1.324175         0.663345         1.939364
 C        -2.665630         0.969483         1.320756
 C        -2.118332         1.432338         0.031379
 C        -0.952935         0.486186         0.348101
 O         0.252596         0.731908        -0.482506
 C        -1.520906        -0.954045         0.340753
 H        -3.820336        -0.940067        -0.088194
 H        -2.796135        -0.248403         3.349463
 H        -1.453821        -1.344566         2.989045
 H        -0.938697         1.556521         2.482048
 H        -3.345760         1.503474         1.930363
 H        -2.471847         1.328492        -0.952736
 H        -1.566572         2.367465        -0.046121
 H         0.643396         1.603090        -0.437176
 H        -1.914957        -1.276408        -0.644478
 H        -0.905517        -1.865102         0.590033
