19
Iteration:  1420charge 0 multiplicity 1
 O        -3.634284        -1.712403         1.123934
 C        -2.682878        -0.690021         1.182745
 C        -1.999598        -0.385312         2.467068
 C        -1.522605         0.924298         1.822945
 C        -2.809270         1.035951         1.033133
 C        -1.997942         1.603635        -0.109335
 C        -0.938561         0.546172         0.312669
 O         0.404445         0.452163        -0.064338
 C        -1.683861        -0.757089         0.026133
 H        -3.978633        -1.930694         2.054195
 H        -2.719061        -0.036554         3.171327
 H        -1.304522        -1.140185         2.834951
 H        -0.992114         1.626220         2.389555
 H        -3.815344         1.412857         1.295809
 H        -2.272389         1.587240        -1.140067
 H        -1.687558         2.598696         0.144383
 H         0.551719        -0.501162        -0.007025
 H        -2.290904        -0.729465        -0.857548
 H        -0.940956        -1.542619         0.003461
