19
Iteration:  2453
 O        -3.902149        -1.331207         1.067076
 C        -2.666223        -0.679207         1.115183
 C        -1.816705        -0.547843         2.447369
 C        -1.469062         0.820084         1.859450
 C        -2.808300         0.834129         1.077697
 C        -2.103582         1.430858        -0.153767
 C        -0.927844         0.557779         0.422845
 O         0.417245         0.535936        -0.063716
 C        -1.536744        -0.855698         0.162786
 H        -4.270850        -1.281540         0.203609
 H        -2.408009        -0.391263         3.357479
 H        -1.035056        -1.256216         2.634570
 H        -1.178231         1.662378         2.416627
 H        -3.614805         1.358931         1.469888
 H        -2.449521         1.222781        -1.157221
 H        -2.037009         2.487698         0.040757
 H         0.890970         1.385495        -0.141609
 H        -1.950216        -0.911668        -0.824838
 H        -0.997664        -1.762696         0.444450
