19
Iteration:    20charge 0 multiplicity 1
 O        -3.645393        -1.766404         1.042571
 C        -2.752239        -0.643274         1.206123
 C        -2.034523        -0.400487         2.550328
 C        -1.351180         0.787601         1.785107
 C        -2.727918         1.057746         1.104695
 C        -2.021761         1.593824        -0.142095
 C        -0.967034         0.503411         0.264632
 O         0.381960         0.614324        -0.081876
 C        -1.722531        -0.818128         0.083274
 H        -4.527895        -1.607210         1.308930
 H        -2.754957         0.156613         3.225083
 H        -1.402619        -1.242205         2.992026
 H        -0.802179         1.659222         2.249914
 H        -3.463722         1.572451         1.654701
 H        -2.435028         1.531930        -1.219339
 H        -1.598398         2.546249         0.068963
 H         0.871182        -0.050329         0.413900
 H        -2.348707        -0.846138        -0.834640
 H        -1.139721        -1.746355         0.208748
