19
Iteration:  1849charge 0 multiplicity 1
 O        -3.815536        -1.449354         0.782975
 C        -2.735353        -0.646019         1.278466
 C        -2.011128        -0.544340         2.651825
 C        -1.370732         0.729165         1.908214
 C        -2.724311         0.940967         1.160928
 C        -2.045666         1.516425        -0.101967
 C        -0.911969         0.499336         0.312123
 O         0.324318         0.606908        -0.248167
 C        -1.542783        -0.841877         0.228625
 H        -3.793009        -2.261106         1.283018
 H        -2.639201        -0.055671         3.409147
 H        -1.398360        -1.363268         2.984128
 H        -0.764624         1.498534         2.391802
 H        -3.439795         1.599351         1.625310
 H        -2.470799         1.415834        -1.097284
 H        -1.860062         2.589359         0.159136
 H         0.413313         1.444234        -0.728285
 H        -1.967843        -1.111857        -0.709645
 H        -0.869152        -1.607487         0.526568
