19
Iteration:  2635
 O        -3.972647        -1.432737         1.038485
 C        -2.746380        -0.712347         1.103115
 C        -1.981321        -0.552410         2.509905
 C        -1.429262         0.750683         1.951464
 C        -2.749222         0.958788         1.096284
 C        -1.975965         1.497596         0.007213
 C        -0.881753         0.556934         0.395507
 O         0.360620         0.639436        -0.348856
 C        -1.451893        -0.918237         0.226216
 H        -4.172963        -1.631528         0.064727
 H        -2.595893        -0.322626         3.402165
 H        -1.281701        -1.373364         2.779305
 H        -0.905963         1.391858         2.667014
 H        -3.713637         1.310693         1.431623
 H        -2.500139         1.491913        -1.002863
 H        -1.608588         2.550857         0.193877
 H         0.604502         1.604224        -0.319650
 H        -1.469120        -1.248879        -0.839939
 H        -0.731520        -1.539635         0.779793
