19
Iteration:  2470charge 0 multiplicity 1
 O        -3.894910        -1.263510         0.915161
 C        -2.650520        -0.680067         1.237353
 C        -1.883523        -0.525141         2.633439
 C        -1.501324         0.816278         1.963166
 C        -2.799382         0.896476         1.103974
 C        -2.143020         1.479184        -0.117440
 C        -0.913144         0.427899         0.320888
 O         0.390323         0.575709        -0.212336
 C        -1.459713        -1.000403         0.192925
 H        -3.985777        -1.057594        -0.002863
 H        -2.501879        -0.591838         3.551282
 H        -0.990487        -1.236146         2.745205
 H        -0.966529         1.697203         2.504209
 H        -3.897524         1.031439         1.457982
 H        -2.615367         1.419216        -1.154463
 H        -1.883925         2.606940        -0.147653
 H         0.662275         1.528493        -0.137326
 H        -1.688135        -1.215315        -0.905102
 H        -0.606482        -1.636158         0.503825
