19
Iteration:  2672charge 0 multiplicity 1
 O        -3.836356        -1.340579         0.793156
 C        -2.658945        -0.660749         1.215860
 C        -1.909401        -0.582257         2.649953
 C        -1.346276         0.741584         1.913859
 C        -2.691252         1.021575         1.217057
 C        -2.190140         1.496398        -0.136497
 C        -0.917226         0.477639         0.395594
 O         0.363539         0.596658        -0.153776
 C        -1.625085        -0.903622         0.145953
 H        -3.702836        -2.246255         0.457239
 H        -2.527478        -0.337745         3.551621
 H        -1.149594        -1.353102         2.871576
 H        -0.871878         1.519990         2.504654
 H        -3.624498         1.419329         1.545791
 H        -2.722772         1.040293        -1.007987
 H        -1.909922         2.571132        -0.235609
 H         0.393782         1.510828        -0.541470
 H        -2.099093        -1.035363        -0.833379
 H        -0.910415        -1.753350         0.305722
