19
Iteration:   221charge 0 multiplicity 1
 O        -3.705802        -1.632705         1.381306
 C        -2.703843        -0.736372         1.111390
 C        -1.781507        -0.598328         2.296710
 C        -1.517878         0.862147         1.741237
 C        -2.773926         1.027516         1.050642
 C        -2.023465         1.692999        -0.220096
 C        -0.984647         0.542194         0.302341
 O         0.408640         0.473793         0.212073
 C        -1.797343        -0.759076        -0.092312
 H        -4.214028        -1.922546         0.559504
 H        -2.402151        -0.490795         3.176516
 H        -1.052510        -1.372548         2.309633
 H        -0.856147         1.610788         2.238964
 H        -3.709589         1.540910         1.583415
 H        -2.289879         1.551682        -1.199377
 H        -1.504033         2.673006         0.006923
 H         0.734126         1.377211         0.314904
 H        -2.459458        -0.613189        -0.910889
 H        -1.248359        -1.680616        -0.163894
