19
Iteration:   244charge 0 multiplicity 1
 O        -3.880104        -1.426850         1.313067
 C        -2.732955        -0.657366         1.095151
 C        -1.741849        -0.627856         2.385292
 C        -1.392229         0.744097         1.799464
 C        -2.838380         0.902233         1.047546
 C        -2.110067         1.488777        -0.134559
 C        -0.951931         0.579245         0.312054
 O         0.437413         0.613164         0.126825
 C        -1.648590        -0.819975        -0.091615
 H        -4.118801        -1.839789         0.448873
 H        -2.307011        -0.555499         3.324574
 H        -1.010358        -1.406913         2.328870
 H        -0.869042         1.655438         2.236604
 H        -3.783411         1.447668         1.482650
 H        -2.401188         1.391441        -1.124993
 H        -1.757257         2.525179         0.172077
 H         0.717470         1.509980        -0.191593
 H        -2.067349        -0.776817        -1.082741
 H        -1.080380        -1.729004         0.095434
