19
Iteration:  3525charge 0 multiplicity 1
 O        -3.863030        -1.522007         1.156766
 C        -2.703919        -0.732794         1.168489
 C        -1.968649        -0.499570         2.486313
 C        -1.434484         0.752487         1.833025
 C        -2.694428         1.043606         1.054202
 C        -2.009032         1.459261        -0.300179
 C        -0.916289         0.491142         0.303571
 O         0.447527         0.709579         0.056377
 C        -1.676544        -0.912089         0.073215
 H        -4.548666        -0.947178         0.692249
 H        -2.542710        -0.187213         3.393029
 H        -1.251517        -1.337308         2.572166
 H        -0.980708         1.622613         2.432969
 H        -3.684453         1.365543         1.330755
 H        -2.560932         1.277239        -1.262551
 H        -1.699915         2.549899        -0.415077
 H         1.142255         0.661099         0.786855
 H        -2.009814        -0.923858        -0.935365
 H        -1.123212        -1.794379         0.247593
