19
Iteration:  3236charge 0 multiplicity 1
 O        -3.874890        -1.365519         1.182633
 C        -2.773356        -0.596740         1.122210
 C        -1.834164        -0.517931         2.429796
 C        -1.380770         0.689883         1.824388
 C        -2.734756         0.966734         1.062384
 C        -2.075256         1.338630        -0.226223
 C        -0.907407         0.411245         0.348048
 O         0.468603         0.869454         0.208008
 C        -1.773294        -0.954189        -0.047194
 H        -3.680733        -2.094579         0.526748
 H        -2.505156        -0.367000         3.319789
 H        -1.385964        -1.495133         2.519921
 H        -0.714408         1.511804         2.289265
 H        -3.564204         1.623237         1.520690
 H        -2.427634         1.040043        -1.271071
 H        -1.740440         2.423850        -0.122986
 H         0.860330         0.495051        -0.612224
 H        -1.975642        -0.768943        -1.045670
 H        -1.370569        -1.952876         0.154553
