19
Iteration:  3988
 O        -3.751128        -1.521431         0.952406
 C        -2.674100        -0.578618         1.077011
 C        -1.982108        -0.591318         2.455867
 C        -1.478486         0.811947         1.863769
 C        -2.778759         0.990656         1.099057
 C        -1.933325         1.573288        -0.057224
 C        -0.974811         0.528726         0.372719
 O         0.302846         0.571574        -0.040014
 C        -1.578811        -0.857262         0.144460
 H        -4.445713        -1.167851         1.491694
 H        -2.500667        -0.618227         3.452963
 H        -1.094667        -1.266735         2.508183
 H        -0.882719         1.615803         2.318702
 H        -3.639583         1.393169         1.671144
 H        -2.253559         1.490178        -1.131293
 H        -1.635442         2.630497         0.226043
 H         0.497721        -0.295185        -0.332844
 H        -1.768978        -0.755602        -0.946043
 H        -1.050849        -1.839531         0.342001
