19
Iteration:  2870
 O        -3.834369        -1.541508         1.090869
 C        -2.732029        -0.641733         1.214840
 C        -1.952937        -0.522046         2.511424
 C        -1.312347         0.749371         1.861934
 C        -2.697549         1.029282         1.090390
 C        -2.096599         1.465811        -0.218426
 C        -0.939468         0.464820         0.294987
 O         0.417611         0.636326         0.035966
 C        -1.687307        -0.821052         0.019532
 H        -3.844684        -1.624136         0.131944
 H        -2.646944        -0.307950         3.342236
 H        -1.308393        -1.375412         2.852430
 H        -0.724697         1.523409         2.440041
 H        -3.610743         1.589398         1.531723
 H        -2.655203         1.058153        -1.094209
 H        -1.633428         2.483166        -0.299264
 H         0.734566         1.528596         0.213474
 H        -2.236500        -0.848466        -0.929103
 H        -1.136301        -1.726641         0.163895
