19
Iteration:  3239
 O        -3.868315        -1.375991         1.175403
 C        -2.770237        -0.600792         1.127588
 C        -1.852677        -0.526958         2.439909
 C        -1.370725         0.676882         1.804620
 C        -2.737842         0.970891         1.029984
 C        -2.056884         1.351028        -0.214281
 C        -0.927319         0.412905         0.376891
 O         0.483293         0.882319         0.183582
 C        -1.764665        -0.944677        -0.019623
 H        -3.667227        -2.036770         0.546524
 H        -2.432380        -0.384529         3.356461
 H        -1.439299        -1.545674         2.552069
 H        -0.867681         1.555010         2.269444
 H        -3.543299         1.618077         1.577495
 H        -2.455132         1.115542        -1.220759
 H        -1.688702         2.358728        -0.169653
 H         0.815701         0.419691        -0.575725
 H        -2.120903        -0.783423        -1.066095
 H        -1.427010        -1.958811         0.134256
