19
Iteration:  4172charge 0 multiplicity 1
 O        -3.829949        -1.393178         1.222628
 C        -2.682771        -0.670212         1.014604
 C        -1.883778        -0.636824         2.366076
 C        -1.534493         0.776282         1.893408
 C        -2.837353         0.904201         1.079437
 C        -2.001318         1.555058        -0.091129
 C        -0.936712         0.530713         0.331321
 O         0.466099         0.623618         0.143316
 C        -1.600653        -0.845103        -0.091238
 H        -4.604886        -0.938927         0.837226
 H        -2.599560        -0.728091         3.230557
 H        -1.027976        -1.292247         2.458727
 H        -1.069316         1.634974         2.438430
 H        -3.852166         1.323956         1.267827
 H        -2.209886         1.609018        -1.148576
 H        -1.541566         2.528342         0.271197
 H         0.739764        -0.144192        -0.368789
 H        -2.001438        -0.717611        -1.078233
 H        -1.033969        -1.813074        -0.107081
