19
Iteration:  4389
 O        -3.953908        -1.460987         1.048140
 C        -2.787569        -0.537961         1.102734
 C        -1.993902        -0.499334         2.466890
 C        -1.371953         0.736210         1.851493
 C        -2.753203         1.008970         1.153828
 C        -2.030252         1.438985        -0.151845
 C        -0.885545         0.503166         0.352073
 O         0.443786         0.706457        -0.068380
 C        -1.494601        -0.979344         0.121476
 H        -4.086347        -1.823364         0.136374
 H        -2.797109        -0.188700         3.229689
 H        -1.465371        -1.389501         2.776587
 H        -0.944231         1.651046         2.357166
 H        -3.575542         1.487259         1.772393
 H        -2.515232         1.183086        -1.042852
 H        -1.757053         2.525690        -0.046247
 H         1.038683         0.108737         0.513924
 H        -1.745841        -1.156528        -0.930039
 H        -0.938311        -1.848337         0.467370
