19
Iteration:  2197
 O        -3.895006        -1.493344         1.216854
 C        -2.722802        -0.606664         1.141468
 C        -1.956023        -0.503664         2.476929
 C        -1.571008         0.855790         1.916429
 C        -2.835730         0.924168         1.012162
 C        -1.964619         1.439781        -0.159756
 C        -0.804673         0.513520         0.355890
 O         0.440931         0.754177        -0.187061
 C        -1.525694        -0.973615         0.185268
 H        -4.229571        -1.571349         0.330741
 H        -2.697788        -0.405942         3.272904
 H        -1.190925        -1.291794         2.569375
 H        -1.142880         1.752569         2.403423
 H        -3.807737         1.384007         1.148164
 H        -2.138677         1.327008        -1.221356
 H        -1.802155         2.517179        -0.036897
 H         0.858618        -0.124542        -0.144561
 H        -1.801680        -1.201689        -0.871530
 H        -0.966248        -1.825208         0.611670
