19
Iteration:  2737charge 0 multiplicity 1
 O        -3.885381        -1.323984         1.264668
 C        -2.655991        -0.729360         1.010311
 C        -1.840698        -0.615601         2.361871
 C        -1.538774         0.776971         1.914591
 C        -2.849534         0.849860         1.005087
 C        -1.951259         1.493698        -0.131913
 C        -0.915932         0.505558         0.466300
 O         0.402358         0.634768        -0.028028
 C        -1.620974        -0.760638        -0.128633
 H        -3.680323        -2.067053         1.799918
 H        -2.429685        -0.626174         3.324003
 H        -1.043664        -1.381498         2.517553
 H        -1.490619         1.761343         2.294463
 H        -3.765969         1.212191         1.425739
 H        -2.122579         1.208183        -1.213821
 H        -1.916884         2.556172         0.226586
 H         0.930378         0.926912         0.698715
 H        -1.969717        -0.548219        -1.152679
 H        -1.058497        -1.739394        -0.008718
