19
Iteration:  1169
 O        -3.875703        -1.314470         0.800042
 C        -2.658510        -0.648986         1.147043
 C        -1.800758        -0.596768         2.563089
 C        -1.381518         0.709897         1.977162
 C        -2.711440         0.940001         1.264373
 C        -2.174724         1.502516         0.037216
 C        -0.933921         0.559712         0.319776
 O         0.251770         0.536184        -0.226356
 C        -1.535161        -0.834411         0.155690
 H        -3.657188        -2.183915         0.533123
 H        -2.458719        -0.451866         3.418613
 H        -1.093541        -1.413038         2.794561
 H        -0.832567         1.507878         2.429024
 H        -3.693855         1.246033         1.725662
 H        -2.615135         1.227749        -0.954827
 H        -1.993786         2.604858         0.029027
 H         0.612055         1.391213        -0.549983
 H        -1.869087        -0.913173        -0.893798
 H        -0.819742        -1.627715         0.383954
