19
Iteration:  3689
 O        -3.845480        -1.575610         0.965357
 C        -2.785745        -0.623997         1.158098
 C        -1.869859        -0.505487         2.416807
 C        -1.372828         0.777497         1.833347
 C        -2.766239         1.077666         1.104469
 C        -1.950810         1.460422        -0.208812
 C        -0.957867         0.487000         0.399731
 O         0.405735         0.656277         0.071100
 C        -1.692743        -0.812248         0.078318
 H        -3.973232        -1.896258         1.844782
 H        -2.453912        -0.254747         3.315063
 H        -1.321265        -1.426209         2.456818
 H        -0.915121         1.690555         2.449843
 H        -3.477059         1.795204         1.575496
 H        -2.386773         1.393610        -1.198782
 H        -1.676631         2.524845        -0.267875
 H         0.593621        -0.277219         0.035307
 H        -2.193917        -0.937477        -0.890327
 H        -1.157038        -1.712913         0.380737
