19
Iteration:   182charge 0 multiplicity 1
 O        -3.677069        -1.651941         1.133494
 C        -2.675471        -0.641257         1.147200
 C        -1.985138        -0.477758         2.481393
 C        -1.405257         0.850059         1.853411
 C        -2.809404         1.010556         1.115246
 C        -2.050518         1.601333        -0.136752
 C        -0.981400         0.593528         0.317365
 O         0.376093         0.435219        -0.162036
 C        -1.650998        -0.797708         0.154463
 H        -4.142701        -1.559808         0.259624
 H        -2.722083        -0.315383         3.311921
 H        -1.294385        -1.342005         2.773825
 H        -1.158183         1.838432         2.332117
 H        -3.663072         1.347886         1.647250
 H        -2.544989         1.555811        -1.199073
 H        -1.724783         2.642242        -0.010988
 H         1.066234         0.738778         0.476680
 H        -2.043293        -0.874618        -0.908326
 H        -1.005258        -1.722844         0.257987
