19
Iteration:   596charge 0 multiplicity 1
 O        -3.780467        -1.552005         0.957482
 C        -2.664631        -0.668991         1.182022
 C        -1.901475        -0.532272         2.549922
 C        -1.351467         0.700332         1.844151
 C        -2.756810         0.988874         1.114956
 C        -2.118838         1.538836        -0.102880
 C        -0.969768         0.570117         0.308031
 O         0.356604         0.644858        -0.085816
 C        -1.594844        -0.851524         0.135612
 H        -4.512892        -1.230493         1.456719
 H        -2.522129        -0.157300         3.333997
 H        -1.309202        -1.334106         2.990163
 H        -0.910875         1.478204         2.410885
 H        -3.648268         1.385456         1.568451
 H        -2.630480         1.564611        -1.039588
 H        -1.694624         2.540418         0.128814
 H         0.329433         0.567976        -1.059386
 H        -1.878281        -1.103655        -0.821738
 H        -0.891990        -1.629064         0.371239
