19
Iteration:  3326charge 0 multiplicity 1
 O        -3.906230        -1.556834         0.960869
 C        -2.769708        -0.670698         1.148759
 C        -1.930922        -0.467411         2.559526
 C        -1.412248         0.752668         1.850768
 C        -2.685537         1.036560         1.144269
 C        -1.969367         1.429730        -0.147147
 C        -0.929590         0.421197         0.413137
 O         0.394255         0.789413        -0.139227
 C        -1.590045        -0.882296         0.169648
 H        -4.451748        -1.177978         0.280856
 H        -2.664089        -0.191744         3.301834
 H        -1.385989        -1.387790         2.799559
 H        -0.832624         1.534100         2.291720
 H        -3.548311         1.529058         1.689199
 H        -2.464460         1.053295        -1.108659
 H        -1.734195         2.491898        -0.175384
 H         1.028309         0.182582         0.210746
 H        -1.909338        -0.858069        -0.833478
 H        -1.147298        -1.814277         0.400444
