19
Iteration:  1300
 O        -3.772534        -1.415303         0.754409
 C        -2.670527        -0.587941         1.196882
 C        -2.023004        -0.663862         2.546408
 C        -1.315427         0.742729         1.979019
 C        -2.711839         1.014634         1.315807
 C        -2.131021         1.399000        -0.069221
 C        -0.936687         0.489652         0.316587
 O         0.282602         0.752866        -0.368742
 C        -1.476947        -0.902284         0.405345
 H        -4.535896        -0.838348         0.569305
 H        -2.684013        -0.303283         3.271332
 H        -1.441956        -1.477213         2.905340
 H        -0.709156         1.476934         2.405524
 H        -3.537068         1.441322         1.884150
 H        -2.715726         1.257263        -0.944589
 H        -1.734219         2.411436        -0.019275
 H         0.171965         0.253469        -1.199861
 H        -1.683490        -1.374720        -0.516457
 H        -0.851840        -1.629138         0.845680
