19
Iteration:  2640charge 0 multiplicity 1
 O        -3.944777        -1.388165         0.994827
 C        -2.722490        -0.680997         1.113715
 C        -1.974605        -0.545061         2.489738
 C        -1.446983         0.742330         1.983572
 C        -2.755528         0.949143         1.137794
 C        -2.005255         1.459797         0.023876
 C        -0.847287         0.539445         0.349802
 O         0.346780         0.605021        -0.345563
 C        -1.443232        -0.859372         0.245256
 H        -4.172709        -1.747493         0.149430
 H        -2.631028        -0.419416         3.377833
 H        -1.257001        -1.324035         2.775319
 H        -0.969169         1.423445         2.700458
 H        -3.836798         1.234392         1.293515
 H        -2.471830         1.270829        -0.948360
 H        -1.664074         2.461261         0.248741
 H         0.432101         1.551028        -0.433673
 H        -1.623589        -1.213387        -0.768326
 H        -0.646916        -1.453642         0.757772
