19
Iteration:   892charge 0 multiplicity 1
 O        -3.720523        -1.768901         1.407605
 C        -2.794154        -0.713235         1.008318
 C        -2.018651        -0.433353         2.347603
 C        -1.449829         0.853484         1.787379
 C        -2.776290         1.072118         1.077778
 C        -1.996377         1.684485        -0.070222
 C        -0.904870         0.528250         0.320663
 O         0.501001         0.553841         0.043385
 C        -1.722438        -0.784754        -0.120672
 H        -4.405928        -1.912372         0.678728
 H        -2.525479        -0.256751         3.276496
 H        -1.351916        -1.215638         2.667202
 H        -0.890173         1.758936         2.340143
 H        -3.629169         1.412910         1.569823
 H        -2.507323         1.839774        -1.049843
 H        -1.657626         2.648609         0.212182
 H         0.744345        -0.341454        -0.203751
 H        -1.979913        -0.793483        -1.142705
 H        -1.077974        -1.671620        -0.090092
