19
Iteration:  1007
 O        -3.857668        -1.618132         1.089688
 C        -2.765494        -0.636072         1.154024
 C        -1.985839        -0.487448         2.482704
 C        -1.364568         0.802090         1.950833
 C        -2.732743         0.998086         1.179964
 C        -1.980150         1.533226        -0.066400
 C        -0.868167         0.489310         0.354246
 O         0.311300         0.666361        -0.312933
 C        -1.580631        -0.905432         0.130324
 H        -4.177422        -1.772306         0.151567
 H        -2.686282        -0.348574         3.320607
 H        -1.372784        -1.337087         2.869474
 H        -0.898859         1.534087         2.485851
 H        -3.522518         1.642206         1.640706
 H        -2.415218         1.558026        -1.029142
 H        -1.715627         2.607691         0.135166
 H         1.009954         1.149032         0.115006
 H        -1.884786        -0.976731        -0.951109
 H        -1.017368        -1.842571         0.274306
