19
Iteration:  1583
 O        -3.641633        -1.734990         1.179026
 C        -2.716326        -0.590272         1.148824
 C        -1.982442        -0.433762         2.435398
 C        -1.482181         0.917071         1.798022
 C        -2.873805         1.074733         1.034638
 C        -1.996787         1.584259        -0.266428
 C        -0.959121         0.562669         0.330506
 O         0.395145         0.398861         0.076582
 C        -1.678295        -0.725042         0.052961
 H        -3.190138        -2.277025         1.819093
 H        -2.623473        -0.249833         3.291132
 H        -1.197705        -1.203569         2.531102
 H        -1.063948         1.829552         2.260936
 H        -3.719690         1.677719         1.397180
 H        -2.559468         1.527091        -1.192102
 H        -1.574383         2.591036         0.007015
 H         0.731676        -0.464131        -0.187023
 H        -2.225727        -0.595070        -0.852997
 H        -1.116298        -1.621700         0.103707
