19
Iteration:  4593
 O        -3.925716        -1.412029         1.015236
 C        -2.743648        -0.599105         1.198460
 C        -2.040514        -0.500839         2.479175
 C        -1.364271         0.718311         1.812466
 C        -2.805925         0.971673         1.123015
 C        -2.050187         1.452343        -0.135062
 C        -0.886996         0.500760         0.329717
 O         0.526756         0.667090        -0.052134
 C        -1.535500        -0.931054         0.213756
 H        -3.945049        -1.607108         0.028075
 H        -2.666734        -0.212878         3.336204
 H        -1.406108        -1.387713         2.897640
 H        -0.903300         1.511848         2.472777
 H        -3.654419         1.337943         1.648480
 H        -2.633399         1.248002        -1.107392
 H        -1.775587         2.520473         0.051214
 H         0.616748         0.497059        -1.052970
 H        -1.791593        -0.976444        -0.836966
 H        -1.080474        -1.835738         0.573686
