19
Iteration:   840
 O        -3.932127        -1.435067         0.987250
 C        -2.676920        -0.647457         1.206810
 C        -1.868365        -0.514873         2.460622
 C        -1.375863         0.822852         1.865016
 C        -2.757800         0.988442         1.139268
 C        -2.159580         1.372475        -0.125034
 C        -0.872046         0.481639         0.349368
 O         0.365745         0.744050        -0.137200
 C        -1.551910        -0.920460         0.217056
 H        -3.734543        -1.679975         0.063576
 H        -2.575782        -0.323001         3.371070
 H        -1.071671        -1.289051         2.690478
 H        -0.866052         1.660850         2.469480
 H        -3.653849         1.504857         1.494853
 H        -2.634993         1.172864        -1.109737
 H        -1.854754         2.417665        -0.105164
 H         0.981094         0.083952         0.174663
 H        -2.102910        -1.067914        -0.788738
 H        -1.029800        -1.889518         0.453503
