19
Iteration:  4488charge 0 multiplicity 1
 O        -3.821111        -1.543028         1.186639
 C        -2.745820        -0.580053         1.090566
 C        -1.919863        -0.521701         2.345401
 C        -1.458963         0.828684         1.836878
 C        -2.812905         1.042969         1.084444
 C        -1.956808         1.465334        -0.172315
 C        -0.953024         0.436506         0.310263
 O         0.503033         0.656368         0.182714
 C        -1.714061        -0.876091         0.035196
 H        -4.426239        -1.663587         0.393422
 H        -2.594951        -0.229632         3.188985
 H        -1.202346        -1.299114         2.510453
 H        -0.774583         1.494273         2.373665
 H        -3.688884         1.665572         1.518789
 H        -2.202453         1.334186        -1.186309
 H        -1.496878         2.495806        -0.108077
 H         0.918624         0.135734        -0.565987
 H        -2.201498        -0.916451        -0.978055
 H        -1.253013        -1.859021         0.267190
