19
Iteration:  4313
 O        -3.771177        -1.425468         1.087066
 C        -2.688292        -0.634169         1.126595
 C        -1.946911        -0.554804         2.459790
 C        -1.375948         0.736486         1.832327
 C        -2.791948         1.044361         1.073427
 C        -2.148819         1.593804        -0.263508
 C        -0.949196         0.431470         0.361684
 O         0.401297         0.525103         0.114505
 C        -1.590558        -0.864881         0.007783
 H        -4.390840        -1.271537         0.337327
 H        -2.492091        -0.357558         3.412491
 H        -1.364002        -1.433529         2.680368
 H        -0.784796         1.547609         2.362782
 H        -3.584603         1.483982         1.743092
 H        -2.556316         1.232931        -1.175153
 H        -1.619351         2.590650        -0.351176
 H         0.785773         0.916721         0.911530
 H        -1.810340        -1.046289        -0.976006
 H        -1.114782        -1.770757         0.325781
