19
Iteration:  1723
 O        -3.835095        -1.521133         1.145315
 C        -2.645674        -0.632116         1.153561
 C        -1.749672        -0.457809         2.430733
 C        -1.514026         0.909122         1.808536
 C        -2.898814         0.903414         1.036455
 C        -2.070226         1.588482        -0.163776
 C        -0.961854         0.617775         0.385847
 O         0.437674         0.330890         0.023185
 C        -1.652332        -0.782260         0.024827
 H        -3.502406        -2.421053         0.871828
 H        -2.422256        -0.392657         3.308505
 H        -0.967112        -1.241010         2.495934
 H        -1.084198         1.758448         2.339970
 H        -3.856183         1.215138         1.499543
 H        -2.522733         1.613785        -1.213697
 H        -1.962993         2.648613         0.182880
 H         0.911169         1.114204         0.302955
 H        -2.102817        -0.755689        -1.013860
 H        -0.973631        -1.745218         0.091455
