19
Iteration:  2399
 O        -3.784825        -1.718529         1.308238
 C        -2.756585        -0.638548         1.138231
 C        -2.014120        -0.451205         2.412626
 C        -1.449699         0.824555         1.772304
 C        -2.791928         1.038763         1.073675
 C        -1.848345         1.598423        -0.149868
 C        -0.973641         0.456541         0.265949
 O         0.458000         0.599599         0.015437
 C        -1.719025        -0.809985        -0.059025
 H        -4.057858        -1.948296         0.427920
 H        -2.676532        -0.153665         3.221516
 H        -1.468326        -1.315437         2.687973
 H        -0.866811         1.563385         2.223132
 H        -3.646308         1.452017         1.508687
 H        -2.062508         1.685606        -1.200195
 H        -1.516063         2.565312         0.173776
 H         0.857837         0.973464         0.845822
 H        -2.251882        -0.894272        -0.974461
 H        -1.191467        -1.739504         0.137022
