19
Iteration:  2435charge 0 multiplicity 1
 O        -3.879037        -1.562817         1.224324
 C        -2.741243        -0.615357         1.132370
 C        -1.927144        -0.569411         2.409704
 C        -1.408496         0.788293         1.813047
 C        -2.777083         1.066028         1.108489
 C        -2.026355         1.488060        -0.221553
 C        -0.932049         0.506631         0.302441
 O         0.438408         0.555162         0.082089
 C        -1.596866        -0.805950         0.006314
 H        -4.265077        -1.472014         0.367622
 H        -2.531480        -0.433117         3.318512
 H        -1.231371        -1.421405         2.513627
 H        -0.776220         1.527319         2.356394
 H        -3.707037         1.455267         1.611484
 H        -2.437872         1.107309        -1.178379
 H        -1.675894         2.562666        -0.160739
 H         0.554594         1.527217         0.141932
 H        -1.849022        -0.920409        -1.061908
 H        -0.871279        -1.600997         0.261786
