19
Iteration:  2084charge 0 multiplicity 1
 O        -3.893847        -1.465769         1.398342
 C        -2.635952        -0.703839         1.026536
 C        -1.986737        -0.429953         2.361811
 C        -1.551448         0.826514         1.838919
 C        -2.868660         0.873637         0.932335
 C        -1.990821         1.573647        -0.164739
 C        -0.955703         0.598164         0.307493
 O         0.518854         0.551825        -0.003074
 C        -1.560585        -0.900960        -0.026925
 H        -3.578041        -2.309307         1.812432
 H        -2.795241        -0.331195         3.121012
 H        -1.204378        -1.233292         2.553577
 H        -1.217928         1.800428         2.106765
 H        -3.823963         1.196851         1.361954
 H        -2.255002         1.648052        -1.234564
 H        -1.653554         2.527329         0.289029
 H         1.041260         0.461699         0.786617
 H        -1.787068        -0.934183        -1.120311
 H        -0.882383        -1.730790         0.364835
