19
Iteration:  3471charge 0 multiplicity 1
 O        -3.953579        -1.354437         1.054849
 C        -2.615432        -0.682526         1.117066
 C        -1.959954        -0.538029         2.577327
 C        -1.531913         0.772746         2.039533
 C        -2.810230         0.963734         1.019505
 C        -1.968519         1.438062        -0.206807
 C        -0.869324         0.519447         0.325645
 O         0.367533         0.710132        -0.193197
 C        -1.497735        -0.933639         0.246875
 H        -4.137119        -1.564794         0.100641
 H        -2.606362        -0.643783         3.466065
 H        -1.352222        -1.440529         2.821925
 H        -1.062717         1.683588         2.525974
 H        -3.663480         1.474090         1.401869
 H        -2.172009         1.220925        -1.272382
 H        -1.780050         2.543747        -0.029927
 H         1.010238        -0.028957        -0.444284
 H        -1.671159        -1.177246        -0.774795
 H        -0.907949        -1.707508         0.662782
