19
Iteration:  2265charge 0 multiplicity 1
 O        -3.748373        -1.525342         1.195096
 C        -2.703408        -0.586297         1.194127
 C        -1.831237        -0.499909         2.454469
 C        -1.541104         0.882168         1.759585
 C        -2.912927         0.969887         0.962640
 C        -2.044558         1.534614        -0.218762
 C        -0.985416         0.542628         0.343991
 O         0.458280         0.419067         0.030509
 C        -1.598359        -0.828473         0.107085
 H        -4.075351        -1.748057         0.298907
 H        -2.402500        -0.397484         3.373115
 H        -1.046750        -1.264576         2.504400
 H        -1.052195         1.721549         2.423639
 H        -3.864750         1.407043         1.481291
 H        -2.364831         1.345494        -1.238125
 H        -2.074801         2.603834        -0.146798
 H         1.080488         0.833086         0.697951
 H        -1.904753        -0.777849        -0.951298
 H        -0.998911        -1.688518         0.386411
