19
Iteration:  2533
 O        -3.828217        -1.502774         1.189365
 C        -2.733570        -0.697654         1.149237
 C        -1.959439        -0.513963         2.435781
 C        -1.517603         0.783720         1.842430
 C        -2.706255         0.927525         1.128717
 C        -1.930541         1.526723        -0.101834
 C        -0.934894         0.508074         0.341008
 O         0.415879         0.586980        -0.088989
 C        -1.638959        -0.829997         0.036293
 H        -4.009537        -1.752321         0.304874
 H        -2.698799        -0.392212         3.222039
 H        -1.197400        -1.262780         2.660743
 H        -1.063041         1.693657         2.361719
 H        -3.614185         1.523089         1.514389
 H        -2.436383         1.464704        -1.087130
 H        -1.578767         2.581771         0.100495
 H         0.543436         1.537346        -0.214679
 H        -2.042640        -0.981652        -0.959492
 H        -0.999126        -1.704402         0.191568
