19
Iteration:  4851
 O        -3.886363        -1.491173         1.081821
 C        -2.739017        -0.645932         1.188270
 C        -2.018026        -0.519332         2.521453
 C        -1.396367         0.827452         1.843285
 C        -2.726343         0.969022         1.059800
 C        -2.001841         1.453308        -0.160929
 C        -0.883886         0.477086         0.400695
 O         0.531948         0.697132         0.001983
 C        -1.691793        -0.908884         0.062845
 H        -4.048227        -1.459846         0.106930
 H        -2.729436        -0.270032         3.283890
 H        -1.419933        -1.408277         2.645580
 H        -0.922316         1.718998         2.357412
 H        -3.511585         1.516445         1.510479
 H        -2.524136         1.229643        -1.151589
 H        -2.046982         2.565480        -0.018320
 H         0.746680         0.200242        -0.850013
 H        -2.059941        -0.947149        -0.956082
 H        -1.070894        -1.754768         0.430876
