19
Iteration:  2418
 O        -3.699824        -1.614917         1.282408
 C        -2.825446        -0.653918         1.065221
 C        -1.996618        -0.525418         2.371184
 C        -1.407408         0.676246         1.774893
 C        -2.702668         1.147969         1.019146
 C        -2.009560         1.621287        -0.197105
 C        -0.912317         0.498432         0.320647
 O         0.456076         0.627733         0.106724
 C        -1.769264        -0.954016         0.029663
 H        -4.303607        -1.911403         0.644840
 H        -2.758261        -0.279177         3.143755
 H        -1.299111        -1.323605         2.742527
 H        -0.850776         1.470892         2.371069
 H        -3.402997         1.862376         1.495694
 H        -2.590075         1.553592        -1.125555
 H        -1.535354         2.602764        -0.056070
 H         0.805040         1.438101         0.512999
 H        -2.193179        -0.908239        -1.019180
 H        -1.236926        -1.929853         0.139138
