19
Iteration:  1562
 O        -3.612381        -1.723813         1.154605
 C        -2.665003        -0.655576         1.129784
 C        -2.033769        -0.357596         2.537150
 C        -1.551391         0.844981         1.853498
 C        -2.830577         1.003324         0.952753
 C        -1.925096         1.642912        -0.106136
 C        -0.985175         0.586438         0.346039
 O         0.433499         0.451854        -0.115581
 C        -1.727039        -0.790846         0.008002
 H        -3.824421        -1.963649         2.129632
 H        -2.922281        -0.093171         3.126703
 H        -1.233345        -0.866789         3.127793
 H        -1.111309         1.781348         2.351307
 H        -3.778451         1.444205         1.366028
 H        -2.152146         1.580135        -1.161640
 H        -1.593632         2.697714         0.126195
 H         0.714062        -0.461470        -0.001733
 H        -2.277219        -0.932778        -0.923344
 H        -1.086889        -1.607547         0.244671
