19
Iteration:   747charge 0 multiplicity 1
 O        -3.673325        -1.659971         1.063656
 C        -2.678166        -0.645360         1.119006
 C        -1.910389        -0.483184         2.463832
 C        -1.406555         0.793522         1.788915
 C        -2.830744         1.035934         1.089605
 C        -2.070473         1.614463        -0.143848
 C        -0.979268         0.570747         0.350006
 O         0.372068         0.515379        -0.018242
 C        -1.664090        -0.781003         0.071541
 H        -4.460935        -1.209570         1.449264
 H        -2.568052        -0.331135         3.326147
 H        -1.061023        -1.166758         2.708367
 H        -0.873683         1.533759         2.324504
 H        -3.682773         1.493830         1.701903
 H        -2.457966         1.476815        -1.141366
 H        -1.781829         2.704019         0.048370
 H         0.572255        -0.437491         0.172794
 H        -2.125706        -0.880599        -0.887056
 H        -1.008802        -1.618560         0.367182
