19
Iteration:  4742
 O        -3.908816        -1.417717         0.966343
 C        -2.753670        -0.549946         1.158635
 C        -2.015796        -0.573213         2.509262
 C        -1.353724         0.726001         1.772959
 C        -2.776632         1.049988         1.163753
 C        -2.085343         1.417288        -0.127735
 C        -0.888335         0.472978         0.253442
 O         0.457477         0.724825         0.001740
 C        -1.525227        -1.005884         0.275477
 H        -4.100685        -1.501614        -0.008802
 H        -2.568403        -0.216678         3.373444
 H        -1.445134        -1.436427         2.784054
 H        -0.778416         1.480925         2.352151
 H        -3.377252         1.662238         1.779691
 H        -2.556521         1.191638        -1.112517
 H        -1.881323         2.511488         0.033581
 H         0.687572         0.583184        -0.954114
 H        -1.849307        -1.247251        -0.789927
 H        -0.876421        -1.865970         0.661599
