19
Iteration:  3133
 O        -3.853613        -1.493569         0.974907
 C        -2.771805        -0.626353         1.152127
 C        -2.027618        -0.546461         2.469379
 C        -1.369938         0.742714         1.808567
 C        -2.722734         1.016367         1.162810
 C        -2.047416         1.450737        -0.145526
 C        -0.907340         0.485620         0.299955
 O         0.457824         0.695995        -0.070175
 C        -1.537918        -0.935867         0.175049
 H        -4.452756        -1.483344         1.703238
 H        -2.630692        -0.128422         3.284065
 H        -1.342821        -1.361271         2.794638
 H        -0.847709         1.458206         2.447468
 H        -3.491954         1.525920         1.730316
 H        -2.640913         1.355174        -1.083491
 H        -1.812901         2.542579         0.043518
 H         0.385116         1.496963        -0.568177
 H        -1.892615        -1.337493        -0.828572
 H        -1.066721        -1.835486         0.595917
