19
Iteration:    62charge 0 multiplicity 1
 O        -3.651643        -1.737319         1.143191
 C        -2.756841        -0.688364         1.148038
 C        -1.915248        -0.523500         2.439807
 C        -1.515781         0.886202         1.842499
 C        -2.783720         1.065773         1.017492
 C        -1.898069         1.659727        -0.175634
 C        -0.959909         0.612711         0.371448
 O         0.322215         0.511222        -0.083963
 C        -1.696598        -0.792160         0.095537
 H        -4.217829        -1.618016         1.942090
 H        -2.666720        -0.558936         3.246731
 H        -1.019478        -1.173524         2.479688
 H        -1.043519         1.688616         2.491692
 H        -3.713063         1.528951         1.281788
 H        -2.247039         1.581188        -1.267476
 H        -1.733433         2.671431         0.192087
 H         0.561016        -0.360611         0.254077
 H        -2.056134        -0.591777        -0.935796
 H        -1.026230        -1.682807         0.164371
