19
Iteration:   568charge 0 multiplicity 1
 O        -3.716237        -1.658990         1.130776
 C        -2.727504        -0.642996         1.135127
 C        -1.883718        -0.530473         2.331097
 C        -1.498764         0.862200         1.836074
 C        -2.787554         1.018810         1.098593
 C        -2.000346         1.557245        -0.094066
 C        -0.950088         0.592071         0.313134
 O         0.466656         0.536164         0.070907
 C        -1.789507        -0.756036         0.015637
 H        -3.636023        -2.043181         1.996859
 H        -2.479013        -0.641719         3.310222
 H        -1.057453        -1.273136         2.439034
 H        -0.925107         1.726693         2.353310
 H        -3.774881         1.444833         1.461546
 H        -2.508003         1.671737        -1.128610
 H        -1.649157         2.514213         0.274881
 H         0.531971         0.153252        -0.806404
 H        -2.418898        -0.543522        -0.997749
 H        -1.186881        -1.739143        -0.080678
