19
Iteration:   661charge 0 multiplicity 1
 O        -3.926384        -1.269050         1.062718
 C        -2.662948        -0.688174         1.152301
 C        -1.833579        -0.617746         2.480835
 C        -1.379779         0.742098         1.773499
 C        -2.747769         0.846537         1.149148
 C        -2.183330         1.297733        -0.189637
 C        -0.949630         0.473803         0.305461
 O         0.433203         0.892345         0.029513
 C        -1.523498        -1.006687         0.136985
 H        -4.555235        -0.509625         0.847541
 H        -2.352663        -0.318950         3.368028
 H        -1.117167        -1.394789         2.805167
 H        -1.042802         1.580555         2.333621
 H        -3.635660         1.334579         1.634985
 H        -2.767577         1.087965        -1.036216
 H        -1.846335         2.347376        -0.163109
 H         0.577726         0.899003        -0.949553
 H        -1.917236        -1.238575        -0.830240
 H        -0.833172        -1.810254         0.488137
