19
Iteration:    92charge 0 multiplicity 1
 O        -3.888308        -1.389990         1.041041
 C        -2.694814        -0.649408         1.172037
 C        -1.883940        -0.504891         2.450816
 C        -1.401546         0.805045         1.740197
 C        -2.758735         0.892254         1.137568
 C        -2.149914         1.379982        -0.163078
 C        -0.940574         0.510054         0.274951
 O         0.447697         0.762236         0.033373
 C        -1.558552        -0.924362         0.123521
 H        -4.127781        -1.873710         1.821306
 H        -2.512067        -0.404325         3.374833
 H        -1.110005        -1.265425         2.711795
 H        -0.885883         1.660732         2.220268
 H        -3.698581         1.361558         1.610192
 H        -2.693944         1.343640        -1.096145
 H        -1.989456         2.518978         0.003820
 H         0.866855        -0.060855        -0.292899
 H        -1.893010        -0.935360        -0.934232
 H        -0.999226        -1.877598         0.227135
