19
Iteration:  3928
 O        -3.899384        -1.249479         0.874405
 C        -2.679418        -0.665350         1.124110
 C        -1.934733        -0.622963         2.488003
 C        -1.458151         0.729616         1.942315
 C        -2.731982         0.986379         1.123633
 C        -2.033406         1.388734        -0.167520
 C        -0.919859         0.430022         0.354256
 O         0.310852         0.825168        -0.133444
 C        -1.481467        -1.012745         0.208325
 H        -4.273911        -1.100791         1.747607
 H        -2.686137        -0.446347         3.320973
 H        -1.236967        -1.342477         2.939930
 H        -0.741883         1.245976         2.660846
 H        -3.729400         1.286439         1.461627
 H        -2.413393         1.192130        -1.163207
 H        -1.588516         2.351022        -0.002023
 H         0.915730         0.264344         0.349627
 H        -1.775370        -0.997787        -0.866446
 H        -0.941447        -1.937501         0.473102
