19
Iteration:   355charge 0 multiplicity 1
 O        -3.861392        -1.468730         1.227826
 C        -2.743275        -0.611048         1.087132
 C        -1.791735        -0.640534         2.364862
 C        -1.397829         0.712082         1.883806
 C        -2.791932         0.941881         1.112061
 C        -2.091908         1.563093        -0.074924
 C        -0.925032         0.512698         0.358801
 O         0.426562         0.625929        -0.041672
 C        -1.657493        -0.831157        -0.004858
 H        -4.090401        -1.781323         0.348348
 H        -2.379768        -0.608067         3.276630
 H        -1.028552        -1.423303         2.447862
 H        -0.922196         1.589098         2.355209
 H        -3.780863         1.290528         1.471492
 H        -2.379773         1.383779        -1.081762
 H        -1.813328         2.660964         0.070778
 H         0.563345         1.568951        -0.132682
 H        -2.029658        -0.674833        -0.996391
 H        -1.141058        -1.773106         0.221706
