19
Iteration:  2726
 O        -3.898844        -1.305277         1.283284
 C        -2.635054        -0.708127         1.081938
 C        -1.885162        -0.711966         2.407502
 C        -1.600667         0.766107         1.965952
 C        -2.821338         0.879726         1.019129
 C        -1.963861         1.473956        -0.187854
 C        -0.927744         0.578502         0.328569
 O         0.408806         0.650620        -0.030167
 C        -1.579134        -0.787428        -0.106096
 H        -3.809994        -2.120712         1.755917
 H        -2.640342        -0.817126         3.238059
 H        -0.965465        -1.316901         2.522883
 H        -1.130718         1.420130         2.697818
 H        -3.811379         1.217722         1.152323
 H        -2.168379         1.534506        -1.301675
 H        -1.634548         2.538888        -0.018185
 H         0.981680         1.026381         0.659730
 H        -2.036165        -0.821170        -1.107162
 H        -0.746676        -1.553674        -0.086870
