19
Iteration:  4138
 O        -3.905543        -1.507250         1.029817
 C        -2.836292        -0.609970         1.093088
 C        -1.984583        -0.584900         2.481774
 C        -1.308653         0.722355         1.874620
 C        -2.746268         0.969968         1.188108
 C        -1.980756         1.543019        -0.114557
 C        -0.887203         0.527562         0.320341
 O         0.412787         0.691400        -0.003256
 C        -1.607853        -0.813863         0.049230
 H        -3.884521        -1.966809         0.209659
 H        -2.551280        -0.454503         3.457370
 H        -1.369147        -1.493375         2.624696
 H        -0.799145         1.545438         2.495289
 H        -3.577047         1.554765         1.638259
 H        -2.412735         1.591054        -1.108548
 H        -1.553199         2.567239         0.133826
 H         0.758030        -0.070912        -0.423403
 H        -2.049491        -0.961496        -0.894776
 H        -1.211373        -1.783409         0.407307
