19
Iteration:  3161charge 0 multiplicity 1
 O        -3.805140        -1.504179         0.875992
 C        -2.731233        -0.630655         1.177840
 C        -2.100442        -0.521635         2.632735
 C        -1.347605         0.724885         1.909238
 C        -2.727266         1.069477         1.129143
 C        -1.958895         1.446893        -0.171454
 C        -0.921461         0.482425         0.400709
 O         0.363072         0.644011        -0.163051
 C        -1.555194        -0.856944         0.136234
 H        -3.656985        -2.187394         1.525118
 H        -2.873838        -0.096563         3.322215
 H        -1.350270        -1.212397         3.049636
 H        -0.844265         1.560243         2.504198
 H        -3.518039         1.625465         1.801402
 H        -2.439490         1.258950        -1.144637
 H        -1.730217         2.499477         0.012532
 H         0.112849         1.128378        -0.968394
 H        -2.064892        -1.020406        -0.833916
 H        -1.202711        -1.850910         0.414637
