19
Iteration:  4796charge 0 multiplicity 1
 O        -3.937251        -1.479300         1.235566
 C        -2.683786        -0.619337         1.099143
 C        -1.880531        -0.524869         2.403817
 C        -1.506473         0.785406         1.809903
 C        -2.856143         0.924994         0.962296
 C        -2.056330         1.523898        -0.203844
 C        -0.862972         0.530575         0.334947
 O         0.625553         0.566198         0.163352
 C        -1.689488        -0.845143         0.055746
 H        -4.657531        -1.391630         0.540166
 H        -2.431101        -0.333950         3.317350
 H        -1.148638        -1.283447         2.566269
 H        -1.139001         1.589477         2.484631
 H        -3.686453         1.072103         1.559295
 H        -2.533228         1.498896        -1.226051
 H        -1.828923         2.594140         0.058731
 H         0.963456         0.556583        -0.798593
 H        -1.933916        -0.842008        -1.002691
 H        -0.934656        -1.642909         0.261019
