19
Iteration:  4152
 O        -3.964358        -1.493556         1.157693
 C        -2.709345        -0.689696         1.127054
 C        -1.915573        -0.620399         2.416461
 C        -1.450579         0.688877         1.831354
 C        -2.749724         0.946735         1.040259
 C        -1.969533         1.613162        -0.093870
 C        -0.917165         0.566003         0.386386
 O         0.498292         0.663020         0.036444
 C        -1.643198        -0.784119         0.019958
 H        -4.279117        -1.627495         0.203633
 H        -2.593716        -0.297629         3.248361
 H        -1.299136        -1.413364         2.801486
 H        -1.055612         1.484746         2.426103
 H        -3.576156         1.422130         1.606927
 H        -2.307744         1.408909        -1.111430
 H        -1.811082         2.620547         0.248853
 H         0.685885        -0.203213        -0.447303
 H        -1.930859        -0.674430        -1.056601
 H        -0.864221        -1.558608        -0.074176
