19
Iteration:   742
 O        -3.633953        -1.691910         1.077440
 C        -2.689038        -0.619352         1.120343
 C        -1.893651        -0.467398         2.448122
 C        -1.455912         0.838102         1.787821
 C        -2.825335         1.036205         1.114103
 C        -2.055645         1.636705        -0.107865
 C        -0.959106         0.515102         0.306996
 O         0.362690         0.468143         0.000340
 C        -1.672379        -0.746291         0.048458
 H        -4.488987        -1.273331         1.349985
 H        -2.765094        -0.312187         3.129600
 H        -1.022042        -1.051715         2.725039
 H        -0.909302         1.607460         2.425128
 H        -3.609984         1.501681         1.663230
 H        -2.562597         1.525193        -1.114938
 H        -1.821420         2.657449         0.129199
 H         0.612346        -0.460336         0.071837
 H        -2.189302        -0.841531        -0.948208
 H        -1.032623        -1.579670         0.376642
