19
Iteration:  2104
 O        -3.857327        -1.458380         1.143705
 C        -2.693224        -0.626736         1.164205
 C        -1.933590        -0.522410         2.478248
 C        -1.557878         0.826951         1.826434
 C        -2.845084         0.940190         0.952061
 C        -2.019979         1.499899        -0.194152
 C        -0.911141         0.513583         0.349687
 O         0.451205         0.570997        -0.102593
 C        -1.510727        -0.848903         0.122499
 H        -3.821246        -2.152500         1.868526
 H        -2.671669        -0.289258         3.260107
 H        -1.025161        -1.091226         2.698486
 H        -1.121199         1.701044         2.420989
 H        -3.839071         1.305640         1.365235
 H        -2.440226         1.459413        -1.246456
 H        -1.796548         2.561852         0.019278
 H         1.073671         0.574041         0.636403
 H        -1.995059        -0.982205        -0.829882
 H        -0.958471        -1.761791         0.423222
