19
Iteration:  4269charge 0 multiplicity 1
 O        -3.981551        -1.342110         0.955983
 C        -2.781429        -0.575484         1.098617
 C        -1.987585        -0.595327         2.555564
 C        -1.499545         0.681584         1.924824
 C        -2.750329         0.954090         1.094165
 C        -1.957406         1.511761        -0.123644
 C        -0.883737         0.488673         0.409052
 O         0.512977         0.649614        -0.200890
 C        -1.512176        -0.941323         0.256384
 H        -3.764910        -2.098208         0.361641
 H        -2.640122        -0.562684         3.446671
 H        -1.230608        -1.318635         2.818020
 H        -1.055967         1.561091         2.469720
 H        -3.668404         1.289093         1.618064
 H        -2.406890         1.396839        -1.063108
 H        -1.764884         2.507505         0.339758
 H         0.349046         1.374538        -0.815186
 H        -1.662886        -1.057334        -0.743939
 H        -0.942674        -1.779192         0.575893
