19
Iteration:  3857
 O        -3.699773        -1.656483         1.028584
 C        -2.713832        -0.584318         1.113734
 C        -2.003667        -0.449462         2.419423
 C        -1.461809         0.773788         1.873077
 C        -2.815637         1.095720         1.115135
 C        -1.911158         1.579081        -0.120734
 C        -0.948198         0.507702         0.319358
 O         0.368523         0.507324         0.016749
 C        -1.669039        -0.796955        -0.010671
 H        -4.330099        -1.572018         1.741523
 H        -2.688339        -0.359275         3.246454
 H        -1.292262        -1.191187         2.767206
 H        -0.995356         1.622940         2.255201
 H        -3.566611         1.687735         1.663309
 H        -2.418767         1.562822        -1.085251
 H        -1.327734         2.476322         0.213525
 H         0.810478        -0.265157         0.321040
 H        -2.065426        -0.800428        -1.002310
 H        -1.293079        -1.768466         0.305005
