19
Iteration:  2813charge 0 multiplicity 1
 O        -3.946648        -1.259969         0.942103
 C        -2.640437        -0.711035         1.165462
 C        -1.943403        -0.612690         2.631710
 C        -1.526811         0.782592         2.012438
 C        -2.779142         0.855120         1.151466
 C        -1.998508         1.424778        -0.042472
 C        -0.850357         0.522020         0.370062
 O         0.374543         0.643964        -0.308393
 C        -1.498476        -0.862796         0.152971
 H        -3.730104        -2.033885         0.372421
 H        -2.786836        -0.482435         3.349816
 H        -1.110803        -1.273479         2.936050
 H        -1.164050         1.625048         2.549082
 H        -3.685980         1.272570         1.535749
 H        -2.362926         1.258442        -1.122458
 H        -1.797555         2.532802        -0.103362
 H         0.585314         1.512060        -0.722492
 H        -1.868381        -1.051802        -0.880001
 H        -0.833153        -1.759235         0.318415
