19
Iteration:  1396charge 0 multiplicity 1
 O        -3.623578        -1.687909         1.220944
 C        -2.712358        -0.655291         1.114017
 C        -1.834817        -0.417806         2.451594
 C        -1.516887         0.894045         1.729085
 C        -2.871710         0.996835         0.976920
 C        -2.022291         1.711155        -0.199594
 C        -0.975852         0.535530         0.339049
 O         0.407603         0.410834         0.210120
 C        -1.785344        -0.770597        -0.105111
 H        -3.665025        -2.054426         2.160888
 H        -2.531653        -0.297480         3.319203
 H        -1.014704        -1.156073         2.617339
 H        -1.107144         1.691718         2.306683
 H        -3.525060         1.602342         1.574353
 H        -2.155300         1.606504        -1.296925
 H        -1.760101         2.692831         0.083490
 H         0.624040        -0.282792        -0.425513
 H        -2.352993        -0.727622        -1.058569
 H        -1.174454        -1.656911        -0.171600
