19
Iteration:   215
 O        -3.669900        -1.696255         1.367498
 C        -2.721838        -0.726684         1.113977
 C        -1.827555        -0.539649         2.308937
 C        -1.476744         0.843807         1.765481
 C        -2.833794         1.105999         1.044862
 C        -2.014056         1.632081        -0.160577
 C        -0.993160         0.583367         0.289403
 O         0.404693         0.420414         0.169804
 C        -1.758615        -0.724118        -0.085625
 H        -4.155160        -1.788575         0.584711
 H        -2.375599        -0.597393         3.289988
 H        -1.105787        -1.432650         2.311929
 H        -0.994434         1.823506         2.039698
 H        -3.641201         1.562291         1.497728
 H        -2.359493         1.666858        -1.300763
 H        -1.422919         2.532777         0.047070
 H         0.733804         1.283101         0.466022
 H        -2.406121        -0.487602        -1.002320
 H        -1.268151        -1.744995        -0.159504
