19
Iteration:  4261
 O        -3.969921        -1.321210         0.936404
 C        -2.739572        -0.682990         1.111014
 C        -2.025634        -0.621386         2.543547
 C        -1.472403         0.709417         1.986037
 C        -2.713587         0.973652         1.089677
 C        -1.935958         1.510132        -0.051181
 C        -0.921275         0.511735         0.314676
 O         0.438842         0.644716        -0.183334
 C        -1.497153        -0.902609         0.259788
 H        -3.791506        -2.209862         0.610557
 H        -2.769823        -0.504861         3.372203
 H        -1.227329        -1.331457         2.770287
 H        -1.112693         1.525853         2.565173
 H        -3.641093         1.570322         1.409360
 H        -2.263306         1.480365        -1.115689
 H        -1.643380         2.595789         0.057538
 H         0.292424         1.154750        -0.967941
 H        -1.612588        -1.210675        -0.827829
 H        -0.820752        -1.701131         0.706095
