19
Iteration:   559charge 0 multiplicity 1
 O        -3.698055        -1.626116         1.192009
 C        -2.719319        -0.613114         1.124268
 C        -1.808435        -0.569188         2.329155
 C        -1.467992         0.809337         1.839466
 C        -2.837067         1.050747         1.036157
 C        -2.057581         1.614689        -0.118260
 C        -0.953649         0.493978         0.310798
 O         0.457001         0.554657         0.142322
 C        -1.805843        -0.730100        -0.066667
 H        -3.433282        -2.090087         1.979331
 H        -2.424737        -0.584936         3.279934
 H        -1.040034        -1.368037         2.225403
 H        -1.129358         1.577218         2.599291
 H        -3.873709         1.548343         1.401385
 H        -2.385217         1.631497        -1.170107
 H        -1.688192         2.623138         0.157455
 H         0.687725         0.053241        -0.642652
 H        -2.425797        -0.648696        -1.054027
 H        -1.378357        -1.757067         0.093830
