19
Iteration:   750
 O        -3.700888        -1.632039         1.053179
 C        -2.682352        -0.662594         1.132635
 C        -1.911578        -0.490991         2.464054
 C        -1.393011         0.764968         1.799051
 C        -2.830984         1.032439         1.082532
 C        -2.075746         1.600524        -0.160684
 C        -0.996924         0.605219         0.367876
 O         0.382580         0.547657        -0.030895
 C        -1.654806        -0.804073         0.088939
 H        -4.491224        -1.212937         1.522499
 H        -2.423899        -0.327343         3.468100
 H        -1.140458        -1.308094         2.712799
 H        -0.798605         1.621534         2.325290
 H        -3.644992         1.457123         1.627096
 H        -2.397730         1.456739        -1.189567
 H        -1.773608         2.614535        -0.028032
 H         0.597618        -0.372627         0.204326
 H        -2.060072        -0.930901        -0.919815
 H        -0.976769        -1.678932         0.293364
