19
Iteration:  4097
 O        -3.980096        -1.273717         0.792046
 C        -2.668964        -0.618058         1.194392
 C        -1.967317        -0.602076         2.596765
 C        -1.345856         0.748989         2.004128
 C        -2.712102         0.883093         1.173736
 C        -2.048147         1.425535        -0.059128
 C        -0.928359         0.482014         0.386544
 O         0.338528         0.701090        -0.222633
 C        -1.555501        -0.851827         0.158285
 H        -3.784078        -2.012710         0.173618
 H        -2.733131        -0.419646         3.361286
 H        -1.318050        -1.436128         2.660840
 H        -0.739331         1.480669         2.537538
 H        -3.560451         1.215143         1.809902
 H        -2.397991         1.272667        -1.063549
 H        -1.853444         2.475718        -0.023559
 H         0.983597        -0.008642        -0.011335
 H        -1.638420        -1.014553        -0.933672
 H        -0.740299        -1.471315         0.586835
