19
Iteration:  3206
 O        -3.951120        -1.290278         1.137486
 C        -2.700499        -0.708407         1.141966
 C        -1.792882        -0.580478         2.438511
 C        -1.472474         0.730937         1.755356
 C        -2.770194         0.903477         1.047637
 C        -2.150469         1.531459        -0.214380
 C        -0.940072         0.527206         0.356443
 O         0.442570         0.611414         0.137371
 C        -1.532776        -0.903292         0.119647
 H        -3.991947        -2.186607         0.755972
 H        -2.405637        -0.331370         3.311873
 H        -1.174237        -1.498391         2.392343
 H        -1.037461         1.638931         2.252239
 H        -3.645749         1.467178         1.605379
 H        -2.477901         1.334013        -1.248553
 H        -1.807891         2.547108        -0.081946
 H         0.615075         0.961903        -0.779850
 H        -1.663247        -0.973952        -1.003956
 H        -0.717802        -1.587281         0.343208
