19
Iteration:   821charge 0 multiplicity 1
 O        -3.956921        -1.203417         1.019502
 C        -2.741916        -0.653473         1.137778
 C        -1.940017        -0.561652         2.587194
 C        -1.351879         0.644780         1.828110
 C        -2.702791         0.839103         1.193575
 C        -2.121889         1.309952        -0.210582
 C        -0.974060         0.467030         0.296956
 O         0.401190         0.957589        -0.172923
 C        -1.485591        -0.983213         0.225999
 H        -4.053011        -1.971970         0.371076
 H        -2.545001        -0.295424         3.472294
 H        -1.436687        -1.495744         2.900971
 H        -0.788696         1.394628         2.233886
 H        -3.527519         1.388237         1.774950
 H        -2.584780         0.928614        -1.140571
 H        -1.861610         2.427754        -0.405930
 H         1.010110         0.377713         0.315991
 H        -1.535925        -1.410015        -0.807065
 H        -0.725959        -1.622284         0.697840
