19
Iteration:  2417
 O        -3.692833        -1.618547         1.285936
 C        -2.826263        -0.656312         1.063872
 C        -2.001332        -0.526331         2.367998
 C        -1.403510         0.681425         1.768506
 C        -2.703888         1.147609         1.016070
 C        -2.004232         1.623211        -0.192417
 C        -0.906640         0.502418         0.317700
 O         0.456363         0.627643         0.104061
 C        -1.786094        -0.959676         0.036261
 H        -4.291495        -1.918340         0.636772
 H        -2.787410        -0.272993         3.118376
 H        -1.304418        -1.343554         2.763903
 H        -0.860315         1.512514         2.375960
 H        -3.428757         1.869732         1.521644
 H        -2.596650         1.554191        -1.131741
 H        -1.480271         2.594274        -0.021923
 H         0.796115         1.441904         0.551728
 H        -2.196517        -0.900381        -1.034665
 H        -1.227642        -1.923840         0.122877
