19
Iteration:  1707charge 0 multiplicity 1
 O        -3.783764        -1.428361         0.963981
 C        -2.672996        -0.715148         1.118569
 C        -1.838108        -0.414086         2.603447
 C        -1.482320         0.889309         1.828618
 C        -2.824947         0.935925         1.134352
 C        -2.137549         1.543855        -0.066664
 C        -0.985103         0.508253         0.302870
 O         0.347666         0.388027        -0.105991
 C        -1.558141        -0.838384         0.088944
 H        -3.542675        -2.343268         0.852144
 H        -2.537037        -0.229342         3.435829
 H        -0.943955        -0.893628         3.019621
 H        -1.122052         1.811022         2.346725
 H        -3.659888         1.456355         1.614410
 H        -2.435868         1.427994        -1.086109
 H        -1.842666         2.577970         0.082494
 H         1.001936         1.040893         0.149880
 H        -1.918120        -1.059860        -0.912787
 H        -0.790682        -1.550390         0.312734
