19
Iteration:  3603charge 0 multiplicity 1
 O        -3.850866        -1.404047         0.977882
 C        -2.716361        -0.552981         1.167505
 C        -1.952817        -0.461919         2.467765
 C        -1.319157         0.735340         1.841095
 C        -2.761172         0.999596         1.100908
 C        -2.052001         1.376260        -0.179928
 C        -0.939132         0.398918         0.407141
 O         0.432734         0.634241        -0.001519
 C        -1.638445        -0.899453         0.209305
 H        -3.659232        -2.012885         0.223303
 H        -2.776842        -0.367073         3.263904
 H        -1.288525        -1.345112         2.674838
 H        -0.743707         1.626898         2.354769
 H        -3.640966         1.593029         1.443690
 H        -2.566557         0.941943        -1.085893
 H        -1.855373         2.533177        -0.157161
 H         0.376515         1.519055        -0.471154
 H        -2.133857        -0.941974        -0.754344
 H        -1.218502        -1.862297         0.400467
