19
Iteration:  1476
 O        -3.953747        -1.211033         0.895149
 C        -2.654525        -0.677215         1.164830
 C        -1.832443        -0.503414         2.665859
 C        -1.407236         0.749577         1.811450
 C        -2.664490         0.801678         1.114920
 C        -2.193739         1.214247        -0.269026
 C        -0.885992         0.407508         0.369711
 O         0.291384         0.979319        -0.173011
 C        -1.478396        -1.088088         0.285952
 H        -4.603859        -0.531782         1.178671
 H        -2.510902        -0.108696         3.418676
 H        -1.175602        -1.159114         3.268699
 H        -0.914404         1.701690         2.219262
 H        -3.672225         1.132120         1.597338
 H        -2.599209         0.814615        -1.158187
 H        -1.858521         2.252772        -0.415972
 H         1.007123         0.599461         0.361430
 H        -1.558921        -1.397783        -0.767388
 H        -0.868921        -1.920271         0.677343
