19
Iteration:  2652
 O        -3.855099        -1.281853         0.925524
 C        -2.635271        -0.601678         1.164064
 C        -1.975990        -0.623214         2.521048
 C        -1.485338         0.784297         2.057931
 C        -2.788342         0.890054         1.220590
 C        -2.050021         1.404658        -0.055717
 C        -0.903544         0.510618         0.324158
 O         0.346050         0.566675        -0.316462
 C        -1.458656        -0.838113         0.240678
 H        -3.702397        -1.874751         0.110331
 H        -2.752940        -0.516487         3.281801
 H        -1.248972        -1.411197         2.724275
 H        -1.071179         1.640441         2.653445
 H        -3.747270         1.386478         1.646103
 H        -2.439958         1.242585        -1.056882
 H        -1.906897         2.473951        -0.024189
 H         0.453123         1.400032        -0.826309
 H        -1.803269        -1.024820        -0.781184
 H        -0.820310        -1.674752         0.526303
