19
Iteration:  2454
 O        -3.902688        -1.323157         1.060699
 C        -2.658441        -0.678126         1.115389
 C        -1.817736        -0.543255         2.457309
 C        -1.478772         0.815364         1.865518
 C        -2.804293         0.830190         1.071280
 C        -2.111585         1.437924        -0.154255
 C        -0.920288         0.556628         0.424846
 O         0.416648         0.533761        -0.073187
 C        -1.533425        -0.864047         0.165696
 H        -4.248838        -1.260191         0.180914
 H        -2.382318        -0.382302         3.376519
 H        -1.027000        -1.234952         2.621963
 H        -1.169573         1.638457         2.432147
 H        -3.629074         1.343654         1.479150
 H        -2.443949         1.201493        -1.157361
 H        -2.075834         2.494891         0.087698
 H         0.852187         1.391417        -0.132570
 H        -1.939455        -0.931376        -0.814028
 H        -1.015209        -1.775832         0.451399
