19
Iteration:  2247charge 0 multiplicity 1
 O        -3.697887        -1.648211         1.159911
 C        -2.699910        -0.657124         1.163593
 C        -1.889169        -0.373657         2.448691
 C        -1.450766         0.930576         1.771992
 C        -2.786130         1.030319         1.063189
 C        -2.133529         1.539670        -0.235540
 C        -0.932919         0.486826         0.287131
 O         0.464097         0.443766         0.114958
 C        -1.766492        -0.802111         0.029622
 H        -3.783384        -2.068248         0.269148
 H        -2.578959        -0.107957         3.292483
 H        -1.027698        -0.979581         2.780566
 H        -1.026008         1.813448         2.185511
 H        -3.585144         1.577635         1.506156
 H        -2.691692         1.428532        -1.225621
 H        -1.652066         2.551080        -0.070910
 H         0.636070         0.243424         1.082533
 H        -2.324093        -0.876498        -0.914067
 H        -1.065718        -1.655853         0.028959
