19
Iteration:  3340charge 0 multiplicity 1
 O        -3.893684        -1.452518         1.105031
 C        -2.748668        -0.633506         1.122686
 C        -2.001759        -0.559764         2.404089
 C        -1.320513         0.772050         1.849667
 C        -2.776756         0.941475         1.093026
 C        -1.999017         1.395421        -0.132839
 C        -0.870108         0.482638         0.318742
 O         0.390657         0.834035        -0.044672
 C        -1.627810        -0.997764         0.123935
 H        -4.492364        -1.055847         0.390794
 H        -2.651070        -0.231263         3.226157
 H        -1.228872        -1.327599         2.699844
 H        -0.916425         1.538135         2.501598
 H        -3.550329         1.486292         1.525262
 H        -2.349437         1.402105        -1.148669
 H        -1.565584         2.387541         0.017593
 H         1.114308         0.474668         0.557784
 H        -1.971438        -1.266028        -0.919204
 H        -0.958834        -1.799094         0.502112
