19
Iteration:   653
 O        -4.007360        -1.239796         1.005784
 C        -2.616213        -0.696625         1.237959
 C        -1.830532        -0.610533         2.536518
 C        -1.303080         0.710941         1.820462
 C        -2.737529         0.814318         1.144908
 C        -2.153582         1.242670        -0.234488
 C        -0.920521         0.526000         0.320593
 O         0.329225         0.908245         0.009999
 C        -1.496049        -0.993602         0.121136
 H        -4.494587        -0.375348         0.783186
 H        -2.464155        -0.409793         3.409152
 H        -1.133323        -1.422907         2.558308
 H        -0.939635         1.670113         2.335391
 H        -3.525537         1.135869         1.726849
 H        -2.539315         0.903930        -1.256459
 H        -1.946732         2.292173        -0.265297
 H         0.533923         0.871801        -0.944600
 H        -1.922261        -1.098754        -0.853355
 H        -0.780275        -1.658371         0.568343
