19
Iteration:  4296
 O        -3.906210        -1.397208         1.003078
 C        -2.706517        -0.641388         1.122444
 C        -1.942189        -0.527977         2.491304
 C        -1.375647         0.739859         1.875395
 C        -2.695588         0.996037         1.131709
 C        -2.008001         1.400645        -0.153529
 C        -0.972049         0.510608         0.307271
 O         0.397080         0.587462         0.012150
 C        -1.600424        -0.876210         0.121769
 H        -4.030452        -1.497892         0.049059
 H        -2.717754        -0.329182         3.248135
 H        -1.214918        -1.275935         2.900083
 H        -0.891253         1.540039         2.422683
 H        -3.620835         1.470534         1.480179
 H        -2.548186         1.058174        -1.097493
 H        -1.819939         2.449637         0.001144
 H         0.747035         1.402535         0.359291
 H        -2.043408        -0.846179        -0.977009
 H        -0.860348        -1.722259         0.288708
