19
Iteration:  3427
 O        -3.757219        -1.626927         1.026045
 C        -2.767542        -0.640650         1.149021
 C        -2.054164        -0.418225         2.516028
 C        -1.347934         0.786097         1.854699
 C        -2.691030         1.052692         1.108958
 C        -1.980053         1.560051        -0.131698
 C        -0.968382         0.473627         0.354256
 O         0.318563         0.597472        -0.101867
 C        -1.653243        -0.823159         0.121662
 H        -3.877023        -1.843836         0.063092
 H        -2.792057        -0.143284         3.293063
 H        -1.410875        -1.057484         3.157184
 H        -0.703029         1.500938         2.392910
 H        -3.593074         1.418991         1.494798
 H        -2.489831         1.476882        -1.101762
 H        -1.487469         2.554080         0.004284
 H         0.978146        -0.079513         0.273078
 H        -1.852102        -1.152292        -0.898332
 H        -0.961782        -1.571174         0.529405
