19
Iteration:   911
 O        -3.780287        -1.625926         1.344953
 C        -2.743043        -0.624367         1.143236
 C        -1.887217        -0.589451         2.389524
 C        -1.418570         0.715033         1.758178
 C        -2.806497         1.064500         1.053566
 C        -1.959099         1.551633        -0.192020
 C        -0.989177         0.527344         0.262360
 O         0.424561         0.702212         0.129910
 C        -1.707026        -0.791628        -0.034825
 H        -4.184755        -1.846386         0.486898
 H        -2.649126        -0.417014         3.175156
 H        -1.230477        -1.401618         2.726305
 H        -0.784080         1.420737         2.307506
 H        -3.508567         1.661859         1.622357
 H        -2.326947         1.449967        -1.245681
 H        -1.642236         2.640602        -0.044243
 H         0.738624         0.052459        -0.494032
 H        -2.199625        -0.742318        -1.022157
 H        -1.142969        -1.756528         0.019507
