19
Iteration:   242
 O        -3.869971        -1.442592         1.324528
 C        -2.733902        -0.659695         1.092984
 C        -1.739488        -0.613392         2.380717
 C        -1.383631         0.723539         1.806885
 C        -2.844918         0.916945         1.041260
 C        -2.087764         1.504842        -0.149320
 C        -0.959683         0.595513         0.303947
 O         0.436511         0.601597         0.146442
 C        -1.672148        -0.830172        -0.107001
 H        -4.066816        -1.815930         0.495848
 H        -2.292495        -0.580363         3.317379
 H        -0.965160        -1.358260         2.350576
 H        -0.916244         1.612891         2.222087
 H        -3.793774         1.444041         1.478377
 H        -2.428752         1.420049        -1.161923
 H        -1.811304         2.551021         0.171485
 H         0.685103         1.495099        -0.150001
 H        -2.077329        -0.750124        -1.085243
 H        -1.091132        -1.701986         0.080519
