19
Iteration:   614charge 0 multiplicity 1
 O        -3.819681        -1.382771         0.910525
 C        -2.696580        -0.623589         1.221403
 C        -1.942574        -0.563049         2.485112
 C        -1.358261         0.791735         1.851534
 C        -2.745501         0.891275         1.245956
 C        -2.131605         1.403577        -0.083466
 C        -0.946338         0.403724         0.269745
 O         0.368975         0.828542        -0.150140
 C        -1.500451        -0.974793         0.219951
 H        -4.545782        -0.789208         0.947480
 H        -2.596223        -0.506624         3.403851
 H        -1.309899        -1.475356         2.640880
 H        -0.785691         1.599157         2.336250
 H        -3.565959         1.380643         1.961702
 H        -2.551207         1.094532        -1.053195
 H        -1.930226         2.508416        -0.061462
 H         0.448511         0.718949        -1.124897
 H        -1.970403        -1.319486        -0.807589
 H        -0.871549        -1.768023         0.736857
