19
Iteration:  1164charge 0 multiplicity 1
 O        -3.871170        -1.351751         0.755870
 C        -2.657884        -0.619354         1.156686
 C        -1.839796        -0.620908         2.564589
 C        -1.375810         0.709433         1.985892
 C        -2.714798         0.990176         1.281250
 C        -2.169061         1.492632         0.062089
 C        -0.946641         0.534951         0.333478
 O         0.257774         0.525083        -0.301639
 C        -1.512305        -0.808741         0.226927
 H        -3.599795        -2.241637         0.351206
 H        -2.424098        -0.435856         3.494061
 H        -1.133169        -1.397806         2.876411
 H        -0.782866         1.624341         2.402976
 H        -3.590639         1.413519         1.746934
 H        -2.750102         1.287055        -0.835371
 H        -1.995918         2.556603         0.009024
 H         0.494194         1.429996        -0.568273
 H        -1.654435        -0.918537        -0.865462
 H        -0.910531        -1.712539         0.453567
