19
Iteration:  3626charge 0 multiplicity 1
 O        -4.029428        -1.287787         0.972719
 C        -2.705976        -0.625659         1.179498
 C        -1.929397        -0.582279         2.561437
 C        -1.442726         0.752147         1.865853
 C        -2.739900         0.934310         1.085149
 C        -1.989567         1.391771        -0.215783
 C        -0.936980         0.454214         0.348033
 O         0.451135         0.758196        -0.038490
 C        -1.498734        -0.958406         0.169823
 H        -3.972109        -2.195956         0.694399
 H        -2.543917        -0.313263         3.520209
 H        -1.223169        -1.452735         2.717205
 H        -0.866601         1.518465         2.502850
 H        -3.560153         1.501076         1.579268
 H        -2.558736         1.027085        -1.127493
 H        -1.577375         2.499150        -0.115159
 H         0.470786         1.108155        -0.908223
 H        -1.909086        -1.396685        -0.719707
 H        -0.842659        -1.686884         0.653575
