19
Iteration:  3993
 O        -3.766296        -1.492957         0.995719
 C        -2.681268        -0.604496         1.047864
 C        -1.949780        -0.573648         2.396725
 C        -1.457671         0.797428         1.869952
 C        -2.813736         0.937063         1.088724
 C        -1.937704         1.604903        -0.107263
 C        -0.988983         0.505109         0.459502
 O         0.324914         0.554654        -0.017728
 C        -1.573720        -0.811710         0.114386
 H        -4.473018        -1.355038         1.708310
 H        -2.416075        -0.560812         3.372084
 H        -1.115141        -1.303145         2.612599
 H        -0.972381         1.696344         2.265790
 H        -3.675286         1.423468         1.539547
 H        -2.240633         1.549020        -1.187610
 H        -1.701995         2.558218         0.340328
 H         0.603272        -0.379558        -0.300192
 H        -1.892169        -0.663084        -0.958251
 H        -0.971215        -1.690993         0.188708
