19
Iteration:  2683charge 0 multiplicity 1
 O        -3.918577        -1.382742         0.819305
 C        -2.718657        -0.646949         1.193123
 C        -1.845136        -0.490950         2.512272
 C        -1.304312         0.712982         1.867187
 C        -2.759021         0.956750         1.225265
 C        -2.100962         1.410055        -0.068309
 C        -0.975969         0.464723         0.281233
 O         0.368182         0.625378        -0.060183
 C        -1.580960        -0.837438         0.171890
 H        -3.575050        -2.256577         0.789221
 H        -2.513990        -0.147542         3.343571
 H        -1.204634        -1.328813         2.866861
 H        -0.616466         1.455068         2.280739
 H        -3.503199         1.455712         1.830054
 H        -2.663549         1.201759        -1.020602
 H        -1.956199         2.514669        -0.114567
 H         0.528680         1.556895        -0.229749
 H        -2.077150        -0.917949        -0.802376
 H        -0.946960        -1.729130         0.385330
