19
Iteration:  3547
 O        -3.809235        -1.528010         1.206946
 C        -2.758694        -0.587439         1.102802
 C        -1.931567        -0.456638         2.404908
 C        -1.476117         0.782481         1.808756
 C        -2.886600         0.941465         1.030628
 C        -1.895785         1.485565        -0.135603
 C        -0.950828         0.490413         0.404447
 O         0.424306         0.552972        -0.062541
 C        -1.554163        -0.867822         0.054944
 H        -4.680655        -1.364800         0.914053
 H        -2.704032        -0.353542         3.217138
 H        -1.110957        -1.204473         2.566670
 H        -1.272153         1.763137         2.390139
 H        -3.782015         1.529706         1.155899
 H        -2.092279         1.627066        -1.248415
 H        -1.698130         2.573925         0.189783
 H         0.938155         0.711517         0.712509
 H        -1.669982        -0.905216        -1.013981
 H        -1.072282        -1.725870         0.427360
