19
Iteration:  2643
 O        -3.916878        -1.351094         0.970812
 C        -2.691086        -0.646693         1.128085
 C        -1.976627        -0.555639         2.482125
 C        -1.461368         0.739996         2.007484
 C        -2.767538         0.927315         1.181662
 C        -2.023860         1.437933         0.008754
 C        -0.841933         0.509389         0.318994
 O         0.337198         0.583026        -0.335243
 C        -1.433112        -0.819049         0.260503
 H        -4.132970        -1.844076         0.098717
 H        -2.662105        -0.475608         3.301011
 H        -1.237085        -1.311447         2.754676
 H        -1.005588         1.523623         2.717861
 H        -3.912870         1.257879         1.293887
 H        -2.405586         1.159151        -0.936925
 H        -1.744793         2.458794         0.242873
 H         0.377869         1.542814        -0.566873
 H        -1.743926        -1.173587        -0.733028
 H        -0.662988        -1.450489         0.675334
