19
Iteration:   725charge 0 multiplicity 1
 O        -3.547006        -1.753472         1.130683
 C        -2.730804        -0.614094         1.115481
 C        -1.930294        -0.409217         2.468716
 C        -1.500438         0.961172         1.921686
 C        -2.850309         1.062177         1.095105
 C        -2.034540         1.614306        -0.071051
 C        -0.978567         0.546552         0.275480
 O         0.470201         0.394354         0.016781
 C        -1.757663        -0.795812        -0.074447
 H        -4.513584        -1.605628         1.061451
 H        -2.480210        -0.208805         3.370268
 H        -1.205143        -1.306777         2.588235
 H        -1.103369         1.826762         2.311644
 H        -3.850274         1.548976         1.479526
 H        -2.403533         1.762438        -1.061197
 H        -1.513332         2.582270         0.299552
 H         0.427824        -0.415080        -0.507006
 H        -2.307402        -0.582275        -0.983045
 H        -1.167533        -1.730068        -0.012833
