19
Iteration:  3783
 O        -3.909424        -1.303736         0.865292
 C        -2.731874        -0.632993         1.163746
 C        -1.931134        -0.565115         2.529444
 C        -1.317689         0.655829         1.885537
 C        -2.635369         0.976823         1.135381
 C        -2.095219         1.334231        -0.253149
 C        -0.958513         0.426024         0.305158
 O         0.333964         0.877272        -0.011678
 C        -1.574956        -0.999788         0.240362
 H        -4.656042        -0.820071         1.287856
 H        -2.559052        -0.330181         3.417736
 H        -1.369442        -1.560486         2.752551
 H        -0.842810         1.510998         2.396151
 H        -3.354203         1.406308         1.856878
 H        -2.586574         1.000059        -1.239798
 H        -1.729532         2.352322        -0.471353
 H         1.225771         0.479703         0.116362
 H        -1.896858        -1.280565        -0.815686
 H        -0.841691        -1.747958         0.627286
