19
Iteration:  2662charge 0 multiplicity 1
 O        -3.797596        -1.267892         0.865737
 C        -2.660611        -0.646022         1.213481
 C        -1.949860        -0.650540         2.622389
 C        -1.469456         0.807322         2.020805
 C        -2.722996         0.962750         1.187394
 C        -2.135032         1.447233        -0.143385
 C        -0.925185         0.571006         0.407754
 O         0.368150         0.569139        -0.269178
 C        -1.565441        -0.946870         0.149002
 H        -3.465499        -1.976459         0.223766
 H        -2.649752        -0.556019         3.481050
 H        -1.302488        -1.509210         2.855934
 H        -1.008728         1.597677         2.653256
 H        -3.557589         1.331768         1.856090
 H        -2.685191         1.156235        -1.062057
 H        -1.786097         2.480367        -0.101523
 H         0.460014         1.398052        -0.826830
 H        -1.800238        -0.954112        -0.908075
 H        -0.942090        -1.805101         0.463012
