19
Iteration:  4614
 O        -3.984305        -1.439515         1.065659
 C        -2.733102        -0.670900         1.092288
 C        -1.839561        -0.531686         2.480205
 C        -1.488645         0.831424         1.907667
 C        -2.764291         0.960715         1.087265
 C        -2.005436         1.516364        -0.212944
 C        -0.898636         0.513379         0.322121
 O         0.426923         0.551048         0.069652
 C        -1.548338        -0.833831         0.148945
 H        -4.374431        -1.603084         0.206786
 H        -2.391017        -0.612276         3.428090
 H        -0.939280        -1.274082         2.641221
 H        -0.959274         1.712174         2.370915
 H        -3.575560         1.465418         1.539544
 H        -2.318665         1.297921        -1.278826
 H        -1.905734         2.584264        -0.079820
 H         0.483244         0.339303        -0.867052
 H        -1.716867        -1.076951        -0.874231
 H        -0.803533        -1.524883         0.525889
