19
Iteration:  3876
 O        -3.760575        -1.574830         1.021708
 C        -2.728836        -0.676866         1.152302
 C        -1.974402        -0.503046         2.495683
 C        -1.355448         0.776008         1.857025
 C        -2.757891         1.038494         1.038209
 C        -2.027829         1.615579        -0.153607
 C        -0.933067         0.457078         0.336317
 O         0.482589         0.602066         0.072481
 C        -1.783304        -0.858206        -0.055826
 H        -4.326490        -1.244402         1.757270
 H        -2.739044        -0.216994         3.289793
 H        -1.369287        -1.269590         2.934933
 H        -0.749801         1.585352         2.377432
 H        -3.699297         1.436954         1.433509
 H        -2.445818         1.377293        -1.107919
 H        -1.769924         2.704212        -0.056746
 H         0.905162        -0.060424         0.658321
 H        -2.381762        -0.769891        -0.956311
 H        -0.990335        -1.654229        -0.212755
