19
Iteration:  2227charge 0 multiplicity 1
 O        -3.745418        -1.674510         1.237658
 C        -2.724529        -0.644138         1.129359
 C        -1.951682        -0.356085         2.505959
 C        -1.378910         0.779460         1.734637
 C        -2.799482         1.093194         1.080596
 C        -2.003910         1.548545        -0.260246
 C        -0.973570         0.530702         0.326016
 O         0.349526         0.585347         0.091928
 C        -1.666663        -0.845048        -0.005788
 H        -3.578191        -2.122164         0.343958
 H        -2.669814         0.031826         3.272355
 H        -1.450313        -1.284081         2.890873
 H        -0.715705         1.478930         2.074565
 H        -3.648294         1.536919         1.457804
 H        -2.233495         1.180761        -1.268697
 H        -1.699407         2.629668        -0.175580
 H         0.768014        -0.087176         0.645011
 H        -2.140511        -0.904052        -1.031360
 H        -1.066443        -1.794169         0.073520
