19
Iteration:    84
 O        -3.834602        -1.475773         1.057608
 C        -2.735531        -0.636585         1.170176
 C        -1.849953        -0.499205         2.482925
 C        -1.429819         0.801586         1.759289
 C        -2.869852         0.925437         1.088215
 C        -2.107185         1.465583        -0.133701
 C        -0.922395         0.493913         0.289522
 O         0.454232         0.696309         0.012102
 C        -1.587588        -0.854419         0.060621
 H        -3.984855        -1.766595         1.971971
 H        -2.495743        -0.268213         3.350533
 H        -1.049931        -1.265320         2.583507
 H        -0.979914         1.671512         2.324815
 H        -3.703516         1.354249         1.595125
 H        -2.516173         1.330261        -1.208246
 H        -1.718874         2.454835         0.077285
 H         0.758223        -0.223843        -0.154095
 H        -2.048414        -0.964435        -0.946923
 H        -0.898743        -1.682531         0.352714
