19
Iteration:  4374charge 0 multiplicity 1
 O        -3.809713        -1.388307         1.170047
 C        -2.697562        -0.690209         1.084848
 C        -2.039694        -0.559117         2.449379
 C        -1.488079         0.792621         1.901737
 C        -2.750435         0.977050         1.035894
 C        -1.951160         1.480470        -0.144335
 C        -0.927438         0.422084         0.308930
 O         0.425853         0.679835        -0.029084
 C        -1.638615        -0.875069         0.070974
 H        -4.146676        -1.583623         0.244221
 H        -2.783332        -0.369920         3.214047
 H        -1.263712        -1.333597         2.646310
 H        -0.920107         1.510192         2.509737
 H        -3.656632         1.384098         1.400538
 H        -2.334277         1.488349        -1.213244
 H        -1.519732         2.457609        -0.056397
 H         0.982585         0.450238         0.735034
 H        -1.998765        -1.004104        -1.050160
 H        -1.053191        -1.716904         0.500215
