19
Iteration:  2148charge 0 multiplicity 1
 O        -3.785095        -1.374213         0.820468
 C        -2.704439        -0.645965         1.194878
 C        -1.951799        -0.412343         2.641830
 C        -1.347990         0.761485         1.824019
 C        -2.742103         0.977241         1.173026
 C        -2.223099         1.259226        -0.215588
 C        -0.931681         0.377402         0.287167
 O         0.407593         0.864971        -0.152219
 C        -1.559932        -1.022697         0.312852
 H        -4.542134        -0.864884         1.267926
 H        -2.637308        -0.098689         3.457809
 H        -1.395269        -1.345905         2.710667
 H        -0.672229         1.462500         2.369750
 H        -3.627279         1.492476         1.636898
 H        -2.793174         0.917800        -1.127043
 H        -1.837193         2.261313        -0.497141
 H         1.009093         0.390750         0.452304
 H        -1.842759        -1.334834        -0.693095
 H        -0.837089        -1.740146         0.769572
