19
Iteration:  4120charge 0 multiplicity 1
 O        -3.818211        -1.400255         0.874706
 C        -2.759319        -0.562916         1.161882
 C        -1.941150        -0.608654         2.444983
 C        -1.438963         0.665447         1.879807
 C        -2.686756         1.113569         1.212937
 C        -2.019852         1.489290        -0.001415
 C        -0.995695         0.434372         0.386493
 O         0.387523         0.729980        -0.115652
 C        -1.643188        -0.956446         0.202865
 H        -3.534204        -1.975003         0.187127
 H        -2.700002        -0.220915         3.128079
 H        -1.271707        -1.421908         2.675779
 H        -0.800238         1.303546         2.420807
 H        -3.557544         1.642060         1.644287
 H        -2.453385         1.328025        -1.004645
 H        -1.633928         2.462062        -0.148325
 H         0.811136        -0.080549        -0.373494
 H        -2.025379        -0.966983        -0.890606
 H        -0.881316        -1.714059         0.440655
