19
Iteration:  1343charge 0 multiplicity 1
 O        -3.919788        -1.329046         0.997818
 C        -2.660463        -0.729349         1.184619
 C        -1.869948        -0.550922         2.509638
 C        -1.362385         0.764702         1.798141
 C        -2.752818         0.818398         1.126090
 C        -2.090665         1.352921        -0.161428
 C        -0.922041         0.461718         0.327390
 O         0.406029         0.854168        -0.033694
 C        -1.576396        -0.944189         0.170997
 H        -4.547162        -0.692661         1.434947
 H        -2.551679        -0.346946         3.292542
 H        -1.218156        -1.367041         2.789675
 H        -0.955501         1.533006         2.389526
 H        -3.639891         1.307812         1.494997
 H        -2.571203         1.082011        -1.067360
 H        -1.832971         2.379166        -0.100961
 H         0.524962         0.978671        -0.979080
 H        -2.006244        -1.079175        -0.794590
 H        -0.911590        -1.757254         0.322219
