19
Iteration:   819charge 0 multiplicity 1
 O        -3.970608        -1.181028         1.027073
 C        -2.731765        -0.668870         1.127381
 C        -1.949487        -0.565739         2.597177
 C        -1.355760         0.614590         1.833257
 C        -2.686067         0.835949         1.185224
 C        -2.118668         1.299349        -0.220380
 C        -0.977190         0.461680         0.290625
 O         0.381519         0.975335        -0.174049
 C        -1.466801        -0.965340         0.232006
 H        -4.048318        -2.001187         0.438721
 H        -2.628076        -0.289775         3.494635
 H        -1.396722        -1.518836         2.881576
 H        -0.726908         1.446413         2.226075
 H        -3.461954         1.378609         1.749738
 H        -2.555691         0.934593        -1.179633
 H        -1.821696         2.357042        -0.383721
 H         1.004246         0.397172         0.353480
 H        -1.567580        -1.409514        -0.834370
 H        -0.703019        -1.603459         0.728381
