19
Iteration:   121
 O        -3.983747        -1.119963         0.986080
 C        -2.713256        -0.601668         1.200574
 C        -1.857479        -0.595390         2.567034
 C        -1.334350         0.627974         1.828728
 C        -2.759800         0.904492         1.152785
 C        -2.102139         1.180056        -0.246389
 C        -0.951265         0.433492         0.309457
 O         0.332592         0.953733        -0.025154
 C        -1.434128        -0.998040         0.180559
 H        -4.004695        -2.146216         0.999988
 H        -2.363439        -0.382841         3.492302
 H        -1.146884        -1.374497         2.810297
 H        -0.750076         1.356185         2.335245
 H        -3.694585         1.359232         1.568091
 H        -2.621277         0.748680        -1.087427
 H        -1.867017         2.226800        -0.498065
 H         0.372635         1.058133        -1.019848
 H        -1.620579        -1.294698        -0.844309
 H        -0.813265        -1.762760         0.631920
