19
Iteration:  2530
 O        -3.827565        -1.518469         1.178507
 C        -2.740548        -0.681822         1.172807
 C        -1.993296        -0.537554         2.453303
 C        -1.500087         0.776460         1.855049
 C        -2.699623         0.971546         1.145046
 C        -1.938105         1.505020        -0.116908
 C        -0.905018         0.491413         0.308229
 O         0.422860         0.613531        -0.115059
 C        -1.652280        -0.815690         0.051257
 H        -4.004070        -1.765522         0.235141
 H        -2.802107        -0.351584         3.193339
 H        -1.272128        -1.274934         2.767021
 H        -1.075604         1.535023         2.467697
 H        -3.533580         1.528066         1.491407
 H        -2.369454         1.363159        -1.082659
 H        -1.682311         2.505417         0.135627
 H         0.593276         1.584705        -0.270312
 H        -2.036393        -0.993265        -0.948323
 H        -0.943543        -1.655121         0.249070
