19
Iteration:  4314
 O        -3.767025        -1.427934         1.092059
 C        -2.690979        -0.638707         1.128446
 C        -1.949918        -0.555828         2.448240
 C        -1.368861         0.740677         1.827427
 C        -2.803627         1.050977         1.067977
 C        -2.155061         1.599803        -0.256175
 C        -0.950031         0.431412         0.353925
 O         0.413674         0.522677         0.120199
 C        -1.592993        -0.867657         0.008819
 H        -4.384619        -1.256385         0.383597
 H        -2.475983        -0.367923         3.410262
 H        -1.366207        -1.432730         2.658340
 H        -0.824778         1.549098         2.356281
 H        -3.613088         1.505016         1.739484
 H        -2.540180         1.211150        -1.168719
 H        -1.613630         2.589761        -0.320814
 H         0.781562         0.878200         0.908827
 H        -1.792982        -1.018875        -0.974813
 H        -1.127926        -1.787641         0.340579
