19
Iteration:    38charge 0 multiplicity 1
 O        -3.529785        -1.877495         1.154360
 C        -2.785610        -0.669486         1.117193
 C        -1.983822        -0.402468         2.538270
 C        -1.517589         0.827449         1.854637
 C        -2.832692         1.228931         1.094414
 C        -1.892739         1.667409        -0.106394
 C        -0.976480         0.511872         0.343415
 O         0.407709         0.467306        -0.146903
 C        -1.790375        -0.765859        -0.025964
 H        -4.426237        -1.694623         1.277744
 H        -2.838309        -0.062928         3.093185
 H        -1.207023        -1.124556         2.870036
 H        -0.888193         1.538764         2.417175
 H        -3.749059         1.824392         1.461038
 H        -2.363614         1.566043        -1.078936
 H        -1.579801         2.730460         0.161255
 H         0.889556        -0.157451         0.406253
 H        -2.139014        -0.698656        -1.071420
 H        -1.135674        -1.629402         0.224515
