19
Iteration:  1916
 O        -3.870612        -1.453512         1.286175
 C        -2.675819        -0.713780         1.133319
 C        -1.671844        -0.506695         2.304980
 C        -1.452157         0.840931         1.722272
 C        -2.854355         0.949359         1.034923
 C        -2.126548         1.496252        -0.234247
 C        -0.967572         0.533134         0.310025
 O         0.461012         0.584387         0.238007
 C        -1.659017        -0.918362        -0.029338
 H        -4.513932        -0.944196         0.678954
 H        -2.183467        -0.537206         3.276459
 H        -0.794342        -1.146196         2.197163
 H        -0.940167         1.656762         2.203400
 H        -3.813437         1.289361         1.359101
 H        -2.480640         1.282267        -1.260449
 H        -2.105421         2.579555        -0.135802
 H         0.667436         0.640928         1.178176
 H        -2.026409        -0.712626        -1.017733
 H        -1.115733        -1.861174        -0.085066
