19
Iteration:  4608
 O        -4.003519        -1.436636         1.043158
 C        -2.768142        -0.713261         1.122019
 C        -1.856066        -0.546731         2.472316
 C        -1.451326         0.832113         1.879747
 C        -2.779272         0.974329         1.096367
 C        -2.053878         1.476856        -0.141351
 C        -0.910682         0.524096         0.351445
 O         0.507794         0.578031         0.019867
 C        -1.539476        -0.838616         0.165806
 H        -4.259151        -1.610660         0.128639
 H        -2.441292        -0.293001         3.395799
 H        -1.182494        -1.305294         2.702107
 H        -0.916948         1.633290         2.359262
 H        -3.625210         1.693729         1.424025
 H        -2.307456         1.346014        -1.201447
 H        -1.816569         2.615270        -0.193524
 H         0.431485         0.373232        -0.918444
 H        -1.780354        -1.289613        -0.874876
 H        -0.618604        -1.415501         0.498890
