19
Iteration:  2255
 O        -3.694334        -1.573416         1.182580
 C        -2.695286        -0.655708         1.165872
 C        -1.889606        -0.392893         2.459081
 C        -1.517921         0.867982         1.737650
 C        -2.882548         1.012585         1.060484
 C        -2.147488         1.566344        -0.263026
 C        -0.934780         0.533584         0.347089
 O         0.491660         0.414168         0.074568
 C        -1.683880        -0.821522         0.072426
 H        -3.753146        -1.799258         0.203470
 H        -2.354903        -0.406048         3.429933
 H        -1.108269        -1.147763         2.486844
 H        -1.005640         1.842955         2.131837
 H        -3.809060         1.499711         1.568842
 H        -2.370144         1.381483        -1.310832
 H        -1.694883         2.530301        -0.083267
 H         0.995024         0.445503         0.932218
 H        -2.298621        -0.882206        -0.824620
 H        -1.089616        -1.730316         0.075120
