19
Iteration:  2428
 O        -3.823116        -1.603856         1.261993
 C        -2.749897        -0.612237         1.097164
 C        -1.969896        -0.534332         2.405633
 C        -1.436696         0.720198         1.806544
 C        -2.721806         1.111544         1.080372
 C        -2.019593         1.558752        -0.229256
 C        -0.962510         0.460405         0.318788
 O         0.452043         0.591777         0.104085
 C        -1.609267        -0.844700        -0.023755
 H        -4.334393        -1.659472         0.451102
 H        -2.476005        -0.343580         3.370985
 H        -1.228706        -1.388536         2.519490
 H        -0.673584         1.313472         2.415626
 H        -3.565797         1.709899         1.536048
 H        -2.477477         1.344158        -1.227167
 H        -1.879284         2.653397        -0.236224
 H         0.694745         1.505641         0.252032
 H        -2.074391        -0.958269        -1.049624
 H        -1.159771        -1.790556         0.326819
