19
Iteration:  4118charge 0 multiplicity 1
 O        -3.816077        -1.373936         0.863012
 C        -2.771150        -0.580556         1.150730
 C        -1.932450        -0.617294         2.458116
 C        -1.443241         0.658901         1.880911
 C        -2.678655         1.108747         1.230035
 C        -2.027984         1.487514        -0.017803
 C        -0.992211         0.449684         0.391363
 O         0.369307         0.730620        -0.127772
 C        -1.613119        -0.962883         0.206126
 H        -3.520432        -1.999652         0.148979
 H        -2.685395        -0.225181         3.175270
 H        -1.290249        -1.414473         2.766235
 H        -0.829959         1.364000         2.479217
 H        -3.575480         1.673249         1.586003
 H        -2.464511         1.306594        -0.962415
 H        -1.605000         2.474992        -0.162063
 H         0.812627        -0.145493        -0.352124
 H        -2.054197        -0.953179        -0.778705
 H        -0.889841        -1.788490         0.415174
