19
Iteration:   371
 O        -3.882571        -1.489598         1.354345
 C        -2.714612        -0.721317         1.102016
 C        -1.801271        -0.629381         2.300345
 C        -1.392314         0.754324         1.735559
 C        -2.784763         0.999514         1.146748
 C        -2.009116         1.473892        -0.150602
 C        -0.975602         0.524845         0.262840
 O         0.436011         0.681860         0.186780
 C        -1.725961        -0.791342        -0.142477
 H        -4.218285        -1.896524         0.491582
 H        -2.333872        -0.646009         3.286440
 H        -1.011071        -1.429447         2.318387
 H        -0.703268         1.320443         2.356221
 H        -3.517001         1.581658         1.728899
 H        -2.611021         1.574493        -1.098025
 H        -1.684472         2.452880         0.088350
 H         0.619907         1.624624         0.146555
 H        -2.275049        -0.834616        -1.143519
 H        -1.029079        -1.636683        -0.198535
