19
Iteration:  1564
 O        -3.594299        -1.718124         1.163313
 C        -2.680602        -0.648505         1.134064
 C        -2.028784        -0.355419         2.526881
 C        -1.563469         0.846463         1.852789
 C        -2.820591         1.007518         0.953561
 C        -1.932172         1.639150        -0.110564
 C        -0.990538         0.581566         0.333892
 O         0.439110         0.441171        -0.100338
 C        -1.735629        -0.776567         0.001812
 H        -3.744096        -2.046184         2.097383
 H        -2.907401        -0.122658         3.174370
 H        -1.256052        -0.915456         3.135060
 H        -1.066637         1.783218         2.420157
 H        -3.819027         1.459201         1.394577
 H        -2.054037         1.622090        -1.184373
 H        -1.682740         2.729160         0.078928
 H         0.624861        -0.491174        -0.003278
 H        -2.262087        -0.958872        -0.983084
 H        -1.072492        -1.647169         0.217150
