19
Iteration:   196
 O        -3.618279        -1.735379         1.224821
 C        -2.767385        -0.609316         1.112590
 C        -1.858091        -0.446971         2.410544
 C        -1.511615         0.858503         1.831261
 C        -2.826495         1.052987         1.074413
 C        -2.034154         1.683575        -0.128633
 C        -0.953735         0.534030         0.352790
 O         0.376811         0.380961        -0.038011
 C        -1.720431        -0.758769        -0.026327
 H        -4.272213        -1.826892         0.557309
 H        -2.517575        -0.216432         3.243793
 H        -1.041649        -1.163078         2.644444
 H        -0.846246         1.414141         2.438420
 H        -3.621948         1.624828         1.455627
 H        -2.349009         1.447756        -1.205952
 H        -1.823390         2.698503         0.150383
 H         0.889055         0.802409         0.646841
 H        -2.176838        -0.802179        -1.022897
 H        -1.062205        -1.573621         0.257294
