19
Iteration:  4832charge 0 multiplicity 1
 O        -3.755945        -1.505572         1.091531
 C        -2.739417        -0.592621         1.114986
 C        -1.877392        -0.498989         2.487849
 C        -1.446587         0.744002         1.804200
 C        -2.778504         1.072305         1.054682
 C        -1.972262         1.462151        -0.218665
 C        -1.016425         0.475639         0.323392
 O         0.353945         0.583156         0.158444
 C        -1.630844        -0.843030         0.101290
 H        -4.401420        -1.271230         0.362082
 H        -2.580207        -0.275748         3.258643
 H        -1.115336        -1.240238         2.808889
 H        -0.826740         1.392771         2.501101
 H        -3.675436         1.347550         1.585522
 H        -2.348577         1.300362        -1.254037
 H        -1.338745         2.320788        -0.166699
 H         0.772226         0.451137        -0.753557
 H        -2.233974        -0.800116        -0.870790
 H        -1.033664        -1.783670         0.201772
