19
Iteration:  1625
 O        -3.944694        -1.247744         1.122918
 C        -2.658740        -0.680238         1.181810
 C        -1.796974        -0.513224         2.494920
 C        -1.432060         0.793961         1.738866
 C        -2.793339         0.843296         0.979680
 C        -2.161553         1.361442        -0.227360
 C        -0.942141         0.442545         0.274207
 O         0.440962         0.766956         0.142408
 C        -1.549586        -0.922584         0.147859
 H        -3.850860        -2.238709         1.278668
 H        -2.536807        -0.327498         3.278315
 H        -1.050908        -1.276340         2.699929
 H        -1.051679         1.698483         2.130971
 H        -3.675050         1.115823         1.502114
 H        -2.534422         1.062972        -1.230386
 H        -1.695346         2.333866        -0.105796
 H         0.543520         0.729132        -0.806966
 H        -2.008470        -1.073647        -0.827516
 H        -0.820815        -1.702951         0.436405
