19
Iteration:  4367charge 0 multiplicity 1
 O        -3.820220        -1.406412         1.187521
 C        -2.661447        -0.708323         1.135032
 C        -1.968175        -0.600598         2.442681
 C        -1.551745         0.764041         1.874881
 C        -2.769591         1.022892         0.929485
 C        -1.906865         1.499436        -0.163223
 C        -0.923506         0.489825         0.372022
 O         0.395446         0.644350        -0.007037
 C        -1.632251        -0.874139         0.058613
 H        -4.332110        -1.506645         0.380750
 H        -2.755515        -0.373533         3.213795
 H        -1.264603        -1.375333         2.740607
 H        -0.840656         1.469381         2.406720
 H        -3.707013         1.542070         1.252741
 H        -2.277799         1.436413        -1.147101
 H        -1.568006         2.533850         0.145630
 H         0.987542         0.553481         0.706554
 H        -2.236162        -0.919061        -0.834463
 H        -0.996263        -1.767475         0.128105
