19
Iteration:  1882
 O        -3.920780        -1.344195         1.300397
 C        -2.730322        -0.666378         1.103763
 C        -1.870501        -0.618935         2.350675
 C        -1.478871         0.757490         1.837499
 C        -2.813477         0.940681         1.041586
 C        -2.056352         1.472874        -0.170941
 C        -0.897935         0.466455         0.356806
 O         0.454904         0.697128         0.020789
 C        -1.530376        -0.894180        -0.009029
 H        -3.946858        -2.244398         0.849884
 H        -2.505971        -0.656447         3.245011
 H        -1.141114        -1.401759         2.473080
 H        -0.885647         1.465225         2.394902
 H        -3.717478         1.418891         1.334415
 H        -2.387625         1.305136        -1.202238
 H        -1.887706         2.551027         0.012591
 H         0.634884         1.633327         0.122730
 H        -1.889112        -0.885550        -1.010778
 H        -1.037463        -1.807490         0.198242
