19
Iteration:  1218
 O        -3.998290        -1.441223         1.371368
 C        -2.773509        -0.687986         1.059027
 C        -1.829848        -0.737447         2.196642
 C        -1.344704         0.675169         1.848247
 C        -2.789435         0.998448         1.105988
 C        -1.980444         1.546936        -0.213183
 C        -0.959537         0.539908         0.289699
 O         0.451052         0.803982         0.112892
 C        -1.693765        -0.887700        -0.142178
 H        -3.725076        -2.280764         1.905858
 H        -2.315418        -0.585829         3.217939
 H        -1.045775        -1.541534         2.201380
 H        -0.732889         1.497114         2.400619
 H        -3.518708         1.513661         1.728428
 H        -2.325892         1.476277        -1.271271
 H        -1.643400         2.596249         0.002952
 H         0.651395         1.127412         0.988213
 H        -1.869727        -0.761639        -1.237011
 H        -1.025668        -1.691698         0.254880
