19
Iteration:  1684charge 0 multiplicity 1
 O        -3.858542        -1.357484         0.881536
 C        -2.705568        -0.612257         1.247166
 C        -1.995798        -0.484122         2.564357
 C        -1.299144         0.749972         1.904159
 C        -2.760614         0.946925         1.142495
 C        -2.127326         1.370713        -0.174065
 C        -0.922010         0.464191         0.346513
 O         0.343570         0.687960        -0.253943
 C        -1.539161        -0.948937         0.302230
 H        -3.528617        -2.279587         0.872362
 H        -2.662609        -0.173681         3.369418
 H        -1.480151        -1.396049         2.893543
 H        -0.854463         1.578530         2.568825
 H        -3.598272         1.512991         1.668971
 H        -2.413575         1.112569        -1.165771
 H        -1.788142         2.412196        -0.232350
 H         0.782619         1.565672        -0.353971
 H        -1.932895        -1.287968        -0.644125
 H        -0.844861        -1.649587         0.649687
