19
Iteration:    36
 O        -3.529381        -1.870057         1.144449
 C        -2.794140        -0.664785         1.126851
 C        -1.978572        -0.399552         2.545037
 C        -1.505307         0.816862         1.841239
 C        -2.829183         1.224262         1.103632
 C        -1.900914         1.665195        -0.110317
 C        -0.971097         0.514138         0.340504
 O         0.412004         0.479009        -0.146408
 C        -1.796959        -0.777142        -0.027246
 H        -4.480815        -1.713538         1.260801
 H        -2.832666        -0.092212         3.104290
 H        -1.250633        -1.079258         3.007752
 H        -0.867264         1.474594         2.365048
 H        -3.765475         1.824398         1.440588
 H        -2.324889         1.571366        -1.042133
 H        -1.629595         2.754348         0.145263
 H         0.866262        -0.146117         0.427148
 H        -2.084554        -0.733302        -1.070557
 H        -1.179684        -1.647214         0.222896
