19
Iteration:  1831charge 0 multiplicity 1
 O        -3.659854        -1.391168         0.642160
 C        -2.680685        -0.603161         1.209253
 C        -1.953739        -0.501996         2.642666
 C        -1.388976         0.792140         1.990832
 C        -2.786917         1.026527         1.274675
 C        -2.095593         1.458077        -0.046507
 C        -0.991229         0.467914         0.371617
 O         0.273617         0.507057        -0.379004
 C        -1.503978        -0.884418         0.319673
 H        -4.327957        -1.661106         1.271234
 H        -2.690525        -0.382964         3.477257
 H        -1.323472        -1.395929         2.869815
 H        -1.078912         1.575583         2.650059
 H        -3.793670         1.255717         1.618366
 H        -2.516076         1.123766        -1.029581
 H        -1.681762         2.452792        -0.016878
 H         0.435529         1.419258        -0.660892
 H        -1.894907        -1.073370        -0.716629
 H        -0.879043        -1.713083         0.832453
