19
Iteration:  1651charge 0 multiplicity 1
 O        -4.087571        -1.166875         1.087067
 C        -2.696552        -0.706151         1.170975
 C        -1.974991        -0.565698         2.537690
 C        -1.353309         0.775616         1.943816
 C        -2.719649         0.883032         1.061638
 C        -2.076723         1.230397        -0.237655
 C        -0.867108         0.455820         0.320166
 O         0.386656         0.931193        -0.140730
 C        -1.344735        -1.089059         0.193629
 H        -4.149019        -2.171403         0.901751
 H        -2.739922        -0.368636         3.294481
 H        -1.242369        -1.351515         2.817428
 H        -0.912322         1.626553         2.629463
 H        -3.690823         1.304036         1.544480
 H        -2.433167         0.817276        -1.147007
 H        -1.663949         2.257121        -0.295204
 H         0.120635         1.525678        -0.841270
 H        -1.731171        -1.295452        -0.802987
 H        -0.699383        -1.846943         0.548318
