19
Iteration:  3469
 O        -3.941222        -1.362841         1.054163
 C        -2.619757        -0.686987         1.133804
 C        -1.986124        -0.545186         2.595916
 C        -1.539032         0.774733         2.042153
 C        -2.801231         0.959252         1.029762
 C        -1.954212         1.448530        -0.208387
 C        -0.856113         0.510417         0.317727
 O         0.375494         0.704225        -0.210458
 C        -1.507940        -0.899777         0.238719
 H        -4.100987        -1.602183         0.156117
 H        -2.636736        -0.631682         3.432573
 H        -1.357051        -1.428684         2.759261
 H        -1.129240         1.642635         2.523881
 H        -3.700821         1.454843         1.335597
 H        -2.185099         1.229231        -1.301359
 H        -1.762993         2.506246         0.002636
 H         0.941730        -0.025330        -0.470918
 H        -1.691049        -1.176998        -0.764703
 H        -0.908440        -1.633846         0.705631
