19
Iteration:  2687
 O        -3.933355        -1.387152         0.853529
 C        -2.750937        -0.619402         1.189259
 C        -1.831869        -0.483118         2.464411
 C        -1.308922         0.722710         1.827872
 C        -2.771990         0.915995         1.223353
 C        -2.082601         1.388357        -0.069802
 C        -0.980428         0.511564         0.274792
 O         0.376833         0.631933        -0.037586
 C        -1.585092        -0.858654         0.152715
 H        -3.574969        -2.335794         0.906762
 H        -2.481296        -0.159412         3.263829
 H        -1.269982        -1.332350         2.857337
 H        -0.577478         1.459217         2.276151
 H        -3.482736         1.460429         1.966830
 H        -2.612098         1.182723        -0.968877
 H        -1.792786         2.435062         0.093776
 H         0.594672         1.590824        -0.096292
 H        -1.959316        -0.950045        -0.878771
 H        -0.955639        -1.679286         0.436468
