19
Iteration:     3
 O        -3.788710        -1.522047         1.014139
 C        -2.696241        -0.643350         1.178009
 C        -1.925343        -0.472615         2.493005
 C        -1.418759         0.799350         1.828954
 C        -2.775937         0.947004         1.087286
 C        -2.039416         1.435993        -0.181915
 C        -0.946043         0.492062         0.335392
 O         0.360825         0.719431        -0.103092
 C        -1.600110        -0.883087         0.154968
 H        -4.390126        -1.258962         1.696031
 H        -2.513997        -0.306804         3.356516
 H        -1.300096        -1.299143         2.779150
 H        -0.976813         1.595374         2.376308
 H        -3.657080         1.470605         1.568786
 H        -2.530810         1.296318        -1.106970
 H        -1.763071         2.526373        -0.085765
 H         0.913093        -0.004269         0.225844
 H        -1.959163        -1.056020        -0.851665
 H        -0.902911        -1.706395         0.378143
