19
Iteration:  2410
 O        -3.706890        -1.676542         1.319205
 C        -2.770252        -0.648059         1.074562
 C        -2.030493        -0.526217         2.362206
 C        -1.387733         0.775830         1.739240
 C        -2.743754         1.134576         1.044217
 C        -1.930808         1.617379        -0.163596
 C        -0.913801         0.499397         0.289779
 O         0.469405         0.625861         0.074553
 C        -1.847613        -0.944041         0.018863
 H        -4.142965        -1.865104         0.486392
 H        -2.824426        -0.224728         3.043061
 H        -1.533569        -1.371196         2.742425
 H        -0.985513         1.557617         2.286150
 H        -3.504521         1.590824         1.579231
 H        -2.388232         1.632897        -1.136094
 H        -1.355831         2.486495         0.087634
 H         0.662890         1.289219         0.741234
 H        -2.172564        -0.871549        -0.977720
 H        -1.205965        -1.812250         0.142455
