19
Iteration:  2442
 O        -3.897797        -1.470576         1.161443
 C        -2.741771        -0.647742         1.147991
 C        -1.860637        -0.583737         2.404192
 C        -1.395243         0.834909         1.821767
 C        -2.819705         0.968429         1.117079
 C        -2.036065         1.418990        -0.179958
 C        -0.933983         0.557914         0.333678
 O         0.424449         0.541279         0.036661
 C        -1.585964        -0.806866         0.078392
 H        -4.325515        -1.399441         0.277475
 H        -2.594051        -0.498825         3.214772
 H        -1.187092        -1.388599         2.609785
 H        -1.014258         1.701822         2.302064
 H        -3.685843         1.361417         1.550961
 H        -2.455758         1.192610        -1.150594
 H        -1.636649         2.412348        -0.205617
 H         0.766800         1.483961        -0.016957
 H        -1.797718        -0.869207        -0.974812
 H        -0.768620        -1.521024         0.228971
