19
Iteration:  2706
 O        -3.954644        -1.356866         1.108082
 C        -2.710408        -0.695995         1.096051
 C        -1.880063        -0.627379         2.408579
 C        -1.411943         0.718113         1.828451
 C        -2.772566         0.951828         1.094147
 C        -2.097340         1.564740        -0.117310
 C        -0.909101         0.477667         0.311273
 O         0.451079         0.675756        -0.029293
 C        -1.566387        -0.906059         0.071979
 H        -3.765628        -2.309038         1.374159
 H        -2.426081        -0.473516         3.358749
 H        -1.127288        -1.436476         2.514652
 H        -1.006076         1.654342         2.336620
 H        -3.691326         1.391710         1.590659
 H        -2.530031         1.545024        -1.140648
 H        -1.879293         2.636393         0.048377
 H         0.747322         1.452861         0.520196
 H        -1.895867        -1.097003        -0.958239
 H        -0.949360        -1.742773         0.442587
