19
Iteration:  3788charge 0 multiplicity 1
 O        -3.887234        -1.274898         0.871848
 C        -2.702133        -0.603742         1.114976
 C        -1.950089        -0.559488         2.531469
 C        -1.266897         0.672791         1.861345
 C        -2.671541         0.934780         1.109644
 C        -2.125098         1.350979        -0.243347
 C        -0.951317         0.383691         0.361135
 O         0.316495         0.881711        -0.009782
 C        -1.551993        -1.012929         0.213728
 H        -4.637640        -0.918066         1.396300
 H        -2.639864        -0.316374         3.350964
 H        -1.363953        -1.370907         2.915905
 H        -0.913168         1.473235         2.596107
 H        -3.347467         1.412005         1.827925
 H        -2.606982         0.951868        -1.109132
 H        -1.717873         2.356964        -0.347444
 H         1.062839         0.229183         0.044517
 H        -1.969579        -1.217734        -0.778307
 H        -0.857729        -1.773537         0.582501
