19
Iteration:  4213
 O        -3.931912        -1.456005         0.859958
 C        -2.774222        -0.610956         1.203761
 C        -1.865431        -0.602525         2.469042
 C        -1.372329         0.755704         1.829685
 C        -2.753553         0.989596         1.170026
 C        -2.054106         1.460921        -0.170006
 C        -0.933593         0.512777         0.300872
 O         0.541506         0.688058         0.134336
 C        -1.668023        -0.853159         0.059831
 H        -4.444778        -1.642229         1.705863
 H        -2.441495        -0.261304         3.329154
 H        -1.291423        -1.524567         2.625590
 H        -0.796309         1.507248         2.458293
 H        -3.576510         1.345420         1.763748
 H        -2.584866         1.405971        -1.112151
 H        -1.931374         2.540475        -0.072005
 H         0.801663         0.135172        -0.674367
 H        -2.161194        -0.847294        -0.877608
 H        -1.018346        -1.678057         0.255567
