19
Iteration:  2920
 O        -3.848492        -1.527399         1.300488
 C        -2.746354        -0.722839         0.984910
 C        -1.855914        -0.564768         2.357378
 C        -1.537691         0.840162         1.835776
 C        -2.859932         0.955724         1.025335
 C        -2.009293         1.683675        -0.139575
 C        -0.970489         0.590783         0.321266
 O         0.450172         0.494853        -0.029005
 C        -1.495805        -0.863111         0.093319
 H        -4.559289        -1.387692         0.675735
 H        -2.542872        -0.506786         3.225656
 H        -1.094694        -1.262942         2.672986
 H        -1.095912         1.579412         2.450050
 H        -3.765049         1.383153         1.307262
 H        -2.249617         1.633520        -1.193827
 H        -1.959999         2.667608         0.260925
 H         1.012725         0.649396         0.728043
 H        -1.706270        -1.123856        -0.982160
 H        -0.711924        -1.635698         0.442833
