19
Iteration:  1566charge 0 multiplicity 1
 O        -3.577630        -1.712549         1.173522
 C        -2.699979        -0.644130         1.140958
 C        -2.022563        -0.355707         2.517147
 C        -1.570874         0.859776         1.852976
 C        -2.818998         1.015600         0.962702
 C        -1.939316         1.638580        -0.121171
 C        -0.987887         0.569711         0.320304
 O         0.440634         0.434240        -0.082038
 C        -1.740506        -0.762879        -0.002651
 H        -3.648124        -2.105918         2.021022
 H        -2.873971        -0.155065         3.228160
 H        -1.309231        -0.981365         3.107415
 H        -1.055716         1.715600         2.445817
 H        -3.793114         1.456025         1.392457
 H        -1.982378         1.658372        -1.236176
 H        -1.781941         2.723444         0.049115
 H         0.532659        -0.550357        -0.000956
 H        -2.223242        -0.960836        -1.019856
 H        -1.055747        -1.684922         0.171528
