19
Iteration:   395charge 0 multiplicity 1
 O        -3.802977        -1.537976         1.368739
 C        -2.709664        -0.642974         1.062227
 C        -1.775960        -0.649518         2.336812
 C        -1.361459         0.696378         1.743413
 C        -2.789625         0.943805         1.015390
 C        -2.097615         1.668285        -0.170822
 C        -0.985409         0.541077         0.279019
 O         0.473832         0.632183         0.188366
 C        -1.778498        -0.833023        -0.079429
 H        -4.550005        -1.447791         0.700188
 H        -2.362778        -0.727056         3.286203
 H        -1.005802        -1.417360         2.303943
 H        -0.737986         1.386760         2.405226
 H        -3.788792         1.340830         1.566204
 H        -2.695955         1.558032        -1.116702
 H        -1.735934         2.732698        -0.100305
 H         0.768054         1.451362         0.673514
 H        -2.142008        -0.750746        -1.124236
 H        -1.248621        -1.811864        -0.063200
