19
Iteration:  2735charge 0 multiplicity 1
 O        -3.883992        -1.311270         1.274865
 C        -2.645346        -0.741065         1.022623
 C        -1.857007        -0.640108         2.367845
 C        -1.552957         0.777054         1.940128
 C        -2.851200         0.860593         1.017159
 C        -1.949632         1.486668        -0.155741
 C        -0.908729         0.511337         0.443281
 O         0.396598         0.638228        -0.030780
 C        -1.615068        -0.750709        -0.145390
 H        -3.676409        -2.061405         1.802924
 H        -2.423006        -0.658250         3.332011
 H        -1.055979        -1.376510         2.533813
 H        -1.479765         1.718787         2.376408
 H        -3.767888         1.192843         1.326353
 H        -2.077515         1.229838        -1.263204
 H        -1.874850         2.535353         0.218756
 H         0.951846         0.943449         0.700098
 H        -1.997609        -0.595075        -1.174034
 H        -0.996255        -1.684067         0.032327
