19
Iteration:    41charge 0 multiplicity 1
 O        -3.527278        -1.885304         1.165139
 C        -2.767002        -0.676280         1.108864
 C        -1.994608        -0.408209         2.510699
 C        -1.528694         0.847127         1.872297
 C        -2.832839         1.229276         1.081600
 C        -1.889320         1.670516        -0.097931
 C        -0.982422         0.511279         0.344713
 O         0.395672         0.455066        -0.144901
 C        -1.772792        -0.746291        -0.013969
 H        -4.495180        -1.649297         1.331534
 H        -2.843697        -0.065932         3.179315
 H        -1.204605        -1.180323         2.704294
 H        -0.938204         1.636105         2.465592
 H        -3.648568         1.775865         1.473340
 H        -2.396867         1.584470        -1.156628
 H        -1.505640         2.637183         0.147939
 H         0.923601        -0.189550         0.390317
 H        -2.218959        -0.680627        -1.041944
 H        -1.096562        -1.609940         0.174999
