19
Iteration:  3021
 O        -3.876370        -1.469503         1.001997
 C        -2.678247        -0.728054         1.175140
 C        -2.019790        -0.519552         2.579561
 C        -1.511833         0.881449         2.021254
 C        -2.792886         0.915237         1.098685
 C        -1.961133         1.482437        -0.060505
 C        -0.876285         0.495925         0.389157
 O         0.404131         0.542918        -0.284533
 C        -1.533582        -0.817273         0.115827
 H        -3.688927        -2.019191         0.201552
 H        -2.778956        -0.459847         3.383151
 H        -1.179556        -1.208679         2.825870
 H        -1.123853         1.787806         2.568355
 H        -3.550277         1.673452         1.521527
 H        -2.377218         1.461526        -1.100099
 H        -1.829623         2.576931         0.147231
 H         0.537732         1.510024        -0.458716
 H        -1.896237        -0.843248        -0.989718
 H        -0.824755        -1.668707         0.264534
