19
Iteration:  1560
 O        -3.630601        -1.728860         1.149733
 C        -2.655440        -0.664688         1.128876
 C        -2.036261        -0.360390         2.545215
 C        -1.538295         0.852140         1.852849
 C        -2.842533         1.001302         0.958066
 C        -1.919100         1.647704        -0.106411
 C        -0.973388         0.582785         0.355401
 O         0.425013         0.465756        -0.127789
 C        -1.716262        -0.800736         0.017760
 H        -3.882815        -1.862180         2.088495
 H        -2.928143        -0.068867         3.103773
 H        -1.238964        -0.848454         3.103062
 H        -1.165815         1.741952         2.272804
 H        -3.717937         1.429544         1.329992
 H        -2.254605         1.547529        -1.163263
 H        -1.529082         2.640407         0.174821
 H         0.786175        -0.450092         0.006631
 H        -2.281168        -0.896890        -0.882238
 H        -1.067519        -1.610594         0.257249
