19
Iteration:  3388charge 0 multiplicity 1
 O        -3.960389        -1.432668         1.243156
 C        -2.717303        -0.588476         1.052242
 C        -1.786727        -0.543132         2.344793
 C        -1.494943         0.799902         1.870686
 C        -2.780417         0.878100         1.011642
 C        -2.023214         1.417427        -0.174202
 C        -0.917887         0.543180         0.389912
 O         0.495793         0.650244         0.058347
 C        -1.641252        -0.853860         0.040398
 H        -4.366756        -1.565628         0.390675
 H        -2.452457        -0.410518         3.240834
 H        -1.012358        -1.327820         2.337940
 H        -0.898424         1.646823         2.346928
 H        -3.781686         1.308384         1.369179
 H        -2.428108         1.184190        -1.167158
 H        -1.916260         2.521615        -0.178772
 H         0.820483         0.457235         0.924713
 H        -1.906622        -0.808370        -1.050182
 H        -1.033956        -1.804602         0.216897
