19
Iteration:  3568charge 0 multiplicity 1
 O        -3.828407        -1.537619         1.156579
 C        -2.645555        -0.660768         1.140514
 C        -1.982484        -0.524899         2.466921
 C        -1.539782         0.846869         1.841884
 C        -2.814015         0.971612         0.959755
 C        -2.009872         1.626891        -0.140755
 C        -0.927589         0.553359         0.362215
 O         0.454961         0.427334        -0.101000
 C        -1.546639        -0.856558         0.158349
 H        -4.471632        -1.349345         0.420002
 H        -2.790450        -0.473088         3.247673
 H        -1.217017        -1.275591         2.724778
 H        -0.977457         1.687286         2.396495
 H        -3.617964         1.480624         1.472616
 H        -2.422330         1.629714        -1.200761
 H        -1.720108         2.716712         0.058607
 H         0.921751         1.038293         0.561549
 H        -2.086413        -1.078450        -0.765598
 H        -0.799836        -1.585534         0.399631
