19
Iteration:  1390
 O        -3.657306        -1.670539         1.237694
 C        -2.743225        -0.653334         1.124730
 C        -1.819677        -0.461074         2.354804
 C        -1.511042         0.906202         1.697310
 C        -2.819082         1.038094         1.000202
 C        -2.036558         1.636905        -0.209852
 C        -0.992834         0.580936         0.345006
 O         0.403579         0.426845         0.262437
 C        -1.751573        -0.781947        -0.084678
 H        -3.841096        -2.041337         2.065933
 H        -2.300600        -0.294648         3.334023
 H        -1.025211        -1.194356         2.475733
 H        -1.012289         1.674033         2.331165
 H        -3.589077         1.540209         1.627841
 H        -2.233739         1.446514        -1.264830
 H        -1.836626         2.722849         0.071165
 H         0.760037        -0.032210        -0.539625
 H        -2.397967        -0.887601        -0.975398
 H        -1.126020        -1.710545        -0.178314
