19
Iteration:   594
 O        -3.782722        -1.576275         0.960583
 C        -2.666677        -0.677089         1.189272
 C        -1.887054        -0.514232         2.546931
 C        -1.354788         0.698401         1.838972
 C        -2.763153         0.998206         1.104754
 C        -2.112957         1.559026        -0.103303
 C        -0.965281         0.564855         0.315886
 O         0.357441         0.627648        -0.077917
 C        -1.598692        -0.829439         0.108327
 H        -4.474708        -1.258598         1.573510
 H        -2.522760        -0.166607         3.362563
 H        -1.315185        -1.344605         3.002283
 H        -0.981308         1.482011         2.454287
 H        -3.723065         1.421045         1.625040
 H        -2.552843         1.542981        -1.059247
 H        -1.687117         2.583870         0.123544
 H         0.311558         0.541032        -1.028711
 H        -1.905073        -1.057362        -0.924075
 H        -0.906289        -1.650990         0.404836
