19
Iteration:  1212
 O        -4.036530        -1.419604         1.338969
 C        -2.769031        -0.639952         1.045724
 C        -1.800519        -0.685473         2.272869
 C        -1.348594         0.652105         1.812917
 C        -2.777551         0.929727         1.090099
 C        -1.987611         1.542041        -0.150854
 C        -0.957580         0.543126         0.319224
 O         0.463580         0.791289         0.089004
 C        -1.670873        -0.891412        -0.146998
 H        -3.636125        -2.226274         1.690317
 H        -2.180520        -0.669524         3.267729
 H        -0.999432        -1.414888         2.263916
 H        -0.782657         1.350259         2.450700
 H        -3.638324         1.466204         1.577759
 H        -2.492932         1.418473        -1.108456
 H        -1.760187         2.592389        -0.030284
 H         0.651460         1.336550         0.879460
 H        -1.981188        -0.956832        -1.184954
 H        -1.031928        -1.722581         0.102689
