19
Iteration:  4865
 O        -3.994879        -1.417324         1.087885
 C        -2.773568        -0.650927         1.122450
 C        -2.032356        -0.524558         2.455017
 C        -1.424071         0.731833         1.834307
 C        -2.797978         0.909061         1.142295
 C        -2.048246         1.446329        -0.128371
 C        -0.838799         0.528817         0.317567
 O         0.561682         0.724341        -0.078437
 C        -1.493985        -0.856930         0.218432
 H        -4.143987        -1.881370         0.237451
 H        -2.662663        -0.184832         3.258155
 H        -1.393980        -1.285556         2.924607
 H        -1.022001         1.565005         2.470352
 H        -3.655544         1.408591         1.629422
 H        -2.417172         1.254320        -1.171070
 H        -1.582186         2.415589        -0.079934
 H         0.669318         0.036786        -0.752920
 H        -1.847058        -0.963285        -0.867433
 H        -0.856119        -1.755321         0.339368
