19
Iteration:  3301
 O        -3.730147        -1.473007         0.910985
 C        -2.669651        -0.608088         1.231342
 C        -2.009711        -0.513631         2.558719
 C        -1.468823         0.818055         1.994865
 C        -2.766296         0.954049         1.131482
 C        -2.054200         1.469021        -0.141276
 C        -0.991595         0.528925         0.372023
 O         0.429063         0.572639        -0.220750
 C        -1.576556        -0.826575         0.179953
 H        -3.989556        -1.162276         0.060551
 H        -2.792800        -0.275559         3.321034
 H        -1.400338        -1.383989         2.755754
 H        -0.929333         1.643302         2.570184
 H        -3.674397         1.451354         1.605802
 H        -2.477635         1.346376        -1.175878
 H        -1.853227         2.539349         0.140703
 H         0.491178        -0.364849        -0.397177
 H        -1.949070        -1.119780        -0.794779
 H        -0.910077        -1.609689         0.614507
