19
Iteration:  2778
 O        -3.824291        -1.469493         0.905261
 C        -2.770082        -0.611341         1.180081
 C        -1.893726        -0.601999         2.521427
 C        -1.350348         0.689026         1.750967
 C        -2.706492         1.066367         1.205076
 C        -2.129519         1.588044        -0.149784
 C        -1.005127         0.523401         0.254791
 O         0.369391         0.604271        -0.022653
 C        -1.623543        -0.895747         0.169601
 H        -3.514521        -2.374245         1.115172
 H        -2.529816        -0.389609         3.404077
 H        -1.279500        -1.464663         2.785968
 H        -0.752897         1.444148         2.225246
 H        -3.280873         1.601687         1.873868
 H        -2.732752         1.165639        -0.990549
 H        -1.663977         2.587860        -0.275854
 H         0.768870         1.341636         0.505944
 H        -1.953524        -1.122313        -0.862744
 H        -0.795783        -1.521119         0.572221
