19
Iteration:  1050
 O        -3.762599        -1.509357         1.322188
 C        -2.671927        -0.664010         1.036772
 C        -1.687556        -0.569342         2.253850
 C        -1.410962         0.838290         1.800358
 C        -2.782802         1.018502         1.107655
 C        -2.163390         1.555373        -0.127660
 C        -1.037776         0.547006         0.328429
 O         0.412457         0.449685         0.204320
 C        -1.773374        -0.800390        -0.159580
 H        -4.264808        -1.621091         0.440688
 H        -2.179929        -0.687821         3.220630
 H        -0.823288        -1.264838         2.383774
 H        -0.951169         1.633300         2.249372
 H        -3.695062         1.338767         1.684577
 H        -2.522186         1.610821        -1.111419
 H        -1.849929         2.605220         0.084930
 H         0.764518         1.140647         0.780532
 H        -2.080671        -0.665994        -1.224597
 H        -1.211795        -1.731469        -0.126065
