19
Iteration:  1800charge 0 multiplicity 1
 O        -3.897866        -1.404921         0.936759
 C        -2.681493        -0.702612         1.188289
 C        -1.919274        -0.576636         2.581758
 C        -1.411056         0.749409         1.935499
 C        -2.775414         0.913481         1.188688
 C        -2.112659         1.449996        -0.121093
 C        -0.925895         0.551345         0.357368
 O         0.364892         0.618007        -0.297472
 C        -1.440185        -0.843104         0.241682
 H        -4.490823        -0.743878         0.463929
 H        -2.643060        -0.420716         3.408629
 H        -1.179796        -1.400920         2.745872
 H        -1.104380         1.603947         2.573113
 H        -3.828952         1.193285         1.518295
 H        -2.425678         1.198764        -1.188679
 H        -1.837642         2.541524        -0.178389
 H         0.822741         1.447756        -0.029387
 H        -1.648971        -1.127864        -0.843337
 H        -0.695356        -1.693534         0.502165
