19
Iteration:  4972
 O        -3.889593        -1.499475         1.073304
 C        -2.728064        -0.647832         1.105000
 C        -1.874476        -0.599355         2.372239
 C        -1.542496         0.840263         1.883310
 C        -2.796188         0.982116         1.050837
 C        -1.907815         1.554883        -0.090697
 C        -0.911529         0.464407         0.386353
 O         0.415839         0.535821         0.016619
 C        -1.605910        -0.846234         0.017272
 H        -4.390188        -1.342526         1.926731
 H        -2.498435        -0.632180         3.280230
 H        -1.052385        -1.382764         2.400448
 H        -1.042928         1.630996         2.553498
 H        -3.685342         1.410667         1.472916
 H        -2.220521         1.712924        -1.220370
 H        -1.535403         2.581001         0.180899
 H         0.586825         1.466409        -0.279596
 H        -1.959258        -0.757971        -1.005597
 H        -0.976726        -1.741844         0.230105
