19
Iteration:  3844charge 0 multiplicity 1
 O        -3.743681        -1.630825         0.991847
 C        -2.820075        -0.612659         1.112164
 C        -1.959510        -0.531599         2.428567
 C        -1.418347         0.841370         1.837215
 C        -2.834087         1.072612         1.028167
 C        -1.905304         1.598629        -0.086397
 C        -0.949946         0.511797         0.428342
 O         0.397287         0.525619        -0.076679
 C        -1.668612        -0.786859         0.169386
 H        -4.329001        -1.667197         1.802172
 H        -2.545887        -0.328899         3.330824
 H        -1.335144        -1.385166         2.488671
 H        -0.847486         1.491849         2.506539
 H        -3.733167         1.588986         1.377523
 H        -2.078188         1.535124        -1.136033
 H        -1.614945         2.672946         0.107391
 H         0.744616        -0.412820         0.031560
 H        -1.954656        -0.911815        -0.852690
 H        -0.845201        -1.502932         0.355896
