19
Iteration:   528charge 0 multiplicity 1
 O        -3.944565        -1.436443         1.217977
 C        -2.632197        -0.709872         1.089924
 C        -1.741828        -0.597002         2.271663
 C        -1.386577         0.811193         1.770051
 C        -2.743918         0.903676         1.136860
 C        -2.163279         1.537979        -0.135069
 C        -0.985586         0.536705         0.245634
 O         0.402075         0.668349         0.209501
 C        -1.635210        -0.772331        -0.053527
 H        -3.990893        -2.272912         1.767400
 H        -2.283678        -0.488154         3.206901
 H        -0.985001        -1.393986         2.354940
 H        -0.990721         1.583982         2.426930
 H        -3.756837         1.340647         1.567582
 H        -2.583124         1.511502        -1.103926
 H        -1.790609         2.568521         0.102879
 H         0.823747         0.009098        -0.407598
 H        -2.097353        -0.962035        -0.965167
 H        -0.956874        -1.604499        -0.016939
