19
Iteration:  4691charge 0 multiplicity 1
 O        -3.839088        -1.427336         1.138167
 C        -2.752327        -0.556953         1.115019
 C        -1.987397        -0.529025         2.468267
 C        -1.502429         0.772537         1.911130
 C        -2.782458         0.957801         1.071261
 C        -1.953982         1.471924        -0.132111
 C        -0.925739         0.474850         0.280684
 O         0.448294         0.622265         0.029339
 C        -1.589437        -0.904408         0.083352
 H        -4.139535        -1.621681         0.203788
 H        -2.709913        -0.494963         3.294847
 H        -1.065596        -1.227976         2.592290
 H        -0.928828         1.609730         2.433137
 H        -3.728126         1.431479         1.314521
 H        -2.402340         1.332666        -1.122634
 H        -1.372354         2.327024         0.089769
 H         0.528975         0.535868        -0.982075
 H        -1.727299        -1.070955        -0.971844
 H        -1.029363        -1.660626         0.582656
