19
Iteration:  4124
 O        -3.835924        -1.439401         0.906153
 C        -2.737466        -0.553915         1.169450
 C        -1.969957        -0.586520         2.428921
 C        -1.410179         0.682529         1.881821
 C        -2.721924         1.105846         1.193536
 C        -2.002025         1.490480        -0.008053
 C        -0.978764         0.414871         0.368559
 O         0.404533         0.732481        -0.087806
 C        -1.685454        -0.919767         0.168964
 H        -3.537742        -2.011723         0.146407
 H        -2.696778        -0.298395         3.205177
 H        -1.268929        -1.458132         2.568768
 H        -0.670830         1.317224         2.410447
 H        -3.515746         1.572433         1.757967
 H        -2.477836         1.337448        -1.035826
 H        -1.610016         2.549996        -0.049822
 H         0.848611        -0.087091        -0.432776
 H        -1.923566        -1.040666        -0.932607
 H        -0.934177        -1.644538         0.505924
