19
Iteration:   612
 O        -3.800574        -1.397649         0.917404
 C        -2.706840        -0.629860         1.213980
 C        -1.950207        -0.564628         2.484475
 C        -1.359924         0.797777         1.850283
 C        -2.744318         0.883119         1.243322
 C        -2.121535         1.434132        -0.081822
 C        -0.960758         0.408269         0.267821
 O         0.369827         0.807198        -0.147638
 C        -1.502952        -0.966693         0.218539
 H        -4.569649        -0.835455         0.995310
 H        -2.636311        -0.460619         3.397923
 H        -1.304218        -1.456125         2.649539
 H        -0.710959         1.610395         2.331900
 H        -3.530027         1.376702         1.892963
 H        -2.591958         1.130198        -1.100065
 H        -1.942966         2.508577        -0.019104
 H         0.467889         0.717100        -1.096957
 H        -2.036242        -1.253485        -0.789195
 H        -0.840228        -1.715382         0.731117
