19
Iteration:  3336charge 0 multiplicity 1
 O        -3.909445        -1.499445         1.051954
 C        -2.740482        -0.635064         1.157576
 C        -1.997228        -0.520089         2.398034
 C        -1.343000         0.776126         1.848227
 C        -2.736639         0.958027         1.114276
 C        -1.993571         1.387783        -0.139395
 C        -0.886451         0.476228         0.400753
 O         0.399756         0.830845        -0.081350
 C        -1.644893        -0.986257         0.124318
 H        -4.432728        -1.077205         0.392205
 H        -2.604869        -0.246528         3.253591
 H        -1.324651        -1.282085         2.776612
 H        -0.809933         1.579349         2.361756
 H        -3.525490         1.575622         1.667696
 H        -2.438213         1.334554        -1.197940
 H        -1.522200         2.366508         0.007446
 H         1.056641         0.400950         0.458564
 H        -1.915477        -1.173495        -0.877142
 H        -0.975568        -1.742961         0.451847
