19
Iteration:  4168charge 0 multiplicity 1
 O        -3.844299        -1.394055         1.231875
 C        -2.680061        -0.767833         1.025570
 C        -1.914702        -0.620635         2.383327
 C        -1.518814         0.775586         1.869761
 C        -2.867340         0.911683         1.067953
 C        -1.981094         1.560129        -0.072643
 C        -0.895746         0.537635         0.360758
 O         0.477723         0.624620         0.115965
 C        -1.601371        -0.792600        -0.095049
 H        -4.532530        -0.957986         0.645752
 H        -2.674019        -0.702611         3.144340
 H        -1.011244        -1.278221         2.441756
 H        -0.984834         1.580390         2.459600
 H        -3.838217         1.314382         1.357833
 H        -2.251356         1.685715        -1.154297
 H        -1.609282         2.611384         0.131265
 H         0.802708        -0.159802        -0.409586
 H        -2.193163        -0.768786        -1.028833
 H        -1.079661        -1.743362         0.057583
