19
Iteration:  3113charge 0 multiplicity 1
 O        -3.911560        -1.393433         1.028686
 C        -2.689559        -0.722437         1.148525
 C        -1.769982        -0.555299         2.495283
 C        -1.472717         0.826416         1.888091
 C        -2.827878         0.889638         1.039520
 C        -2.021302         1.469213        -0.158024
 C        -0.965475         0.478454         0.357212
 O         0.395589         0.607645        -0.015948
 C        -1.556213        -0.886272         0.101635
 H        -4.552733        -0.723501         1.345937
 H        -2.412731        -0.539713         3.377213
 H        -0.985204        -1.305727         2.582763
 H        -1.010403         1.647028         2.411087
 H        -3.752816         1.254360         1.369124
 H        -2.438537         1.194145        -1.162327
 H        -1.767446         2.584026        -0.089865
 H         0.616925         1.550879        -0.148221
 H        -1.759387        -0.917229        -0.950548
 H        -0.796822        -1.661308         0.266573
