19
Iteration:  2999
 O        -3.846296        -1.297658         0.906121
 C        -2.656428        -0.622676         1.151251
 C        -1.887766        -0.542996         2.500586
 C        -1.411176         0.756318         1.918625
 C        -2.824577         0.922354         1.135024
 C        -2.167992         1.418171        -0.094568
 C        -0.965705         0.599503         0.403295
 O         0.342729         0.503589        -0.170859
 C        -1.443867        -0.879828         0.278513
 H        -3.677883        -1.624341         0.009707
 H        -2.619412        -0.393683         3.317913
 H        -1.195738        -1.397353         2.661209
 H        -0.948303         1.436532         2.679691
 H        -3.809665         1.129161         1.757036
 H        -2.560047         1.289381        -1.138897
 H        -1.955767         2.536244        -0.062352
 H         0.551753         1.187273        -0.804847
 H        -1.523755        -1.247821        -0.831271
 H        -0.669169        -1.501903         0.807483
