19
Iteration:  2520charge 0 multiplicity 1
 O        -3.835642        -1.561956         1.128131
 C        -2.735584        -0.613824         1.164365
 C        -2.072519        -0.580621         2.535541
 C        -1.364427         0.710473         1.947272
 C        -2.767216         1.071975         1.109346
 C        -1.993076         1.450737        -0.143804
 C        -0.871599         0.502461         0.278246
 O         0.448656         0.665305        -0.191557
 C        -1.629952        -0.836562         0.117484
 H        -4.056985        -1.775413         0.163536
 H        -2.803277        -0.229756         3.278968
 H        -1.554199        -1.417040         2.969720
 H        -0.850447         1.360692         2.645311
 H        -3.582569         1.618849         1.583337
 H        -2.329530         1.308368        -1.157782
 H        -1.763149         2.509663        -0.042204
 H         0.613222         1.623912        -0.352180
 H        -2.024732        -0.899691        -0.880274
 H        -0.990953        -1.698789         0.379222
