19
Iteration:  4897charge 0 multiplicity 1
 O        -3.884945        -1.231615         0.939940
 C        -2.663608        -0.639580         1.138446
 C        -1.960271        -0.596532         2.470610
 C        -1.453937         0.775770         1.852766
 C        -2.744170         0.919935         1.113821
 C        -2.019465         1.437381        -0.127360
 C        -0.944387         0.435422         0.374874
 O         0.333188         0.761830        -0.070555
 C        -1.530177        -0.981913         0.243081
 H        -3.770597        -2.178905         0.886171
 H        -2.609258        -0.477291         3.294858
 H        -1.132363        -1.293572         2.535379
 H        -1.000068         1.709973         2.297578
 H        -3.653823         1.346760         1.530038
 H        -2.414086         1.285640        -1.197432
 H        -1.437604         2.368578        -0.084573
 H         0.759508        -0.100139        -0.066793
 H        -2.017362        -0.956684        -0.753516
 H        -0.861862        -1.859189         0.523831
