19
Iteration:  1008charge 0 multiplicity 1
 O        -3.857618        -1.619506         1.096239
 C        -2.761535        -0.646112         1.151043
 C        -1.980555        -0.492602         2.478424
 C        -1.365475         0.805054         1.941843
 C        -2.733051         0.994213         1.178980
 C        -1.985787         1.542511        -0.071134
 C        -0.876015         0.504059         0.362675
 O         0.320603         0.657278        -0.309044
 C        -1.589650        -0.900476         0.125523
 H        -4.171285        -1.785327         0.187677
 H        -2.700470        -0.341856         3.301089
 H        -1.363215        -1.338549         2.874220
 H        -0.894540         1.556091         2.514384
 H        -3.499758         1.633203         1.613812
 H        -2.394934         1.576217        -1.057149
 H        -1.716340         2.618713         0.164882
 H         1.012445         1.128811         0.141421
 H        -1.901541        -0.966582        -0.954288
 H        -1.027217        -1.854533         0.279224
