19
Iteration:  4149charge 0 multiplicity 1
 O        -3.960281        -1.506351         1.131267
 C        -2.765371        -0.654000         1.116753
 C        -1.920238        -0.625574         2.448775
 C        -1.416804         0.686479         1.836341
 C        -2.722966         0.938387         1.074802
 C        -1.981510         1.596099        -0.100496
 C        -0.923276         0.580421         0.367269
 O         0.484062         0.665472         0.028872
 C        -1.621305        -0.801612         0.024761
 H        -4.228718        -1.742804         0.226555
 H        -2.594202        -0.230244         3.248121
 H        -1.282073        -1.462543         2.763110
 H        -1.052565         1.556436         2.463271
 H        -3.572577         1.468660         1.552014
 H        -2.267482         1.515542        -1.143161
 H        -1.747601         2.663580         0.194961
 H         0.678825        -0.161246        -0.425274
 H        -1.954860        -0.639846        -0.955066
 H        -0.892796        -1.637442        -0.022856
