19
Iteration:  4644charge 0 multiplicity 1
 O        -3.821243        -1.458540         1.209742
 C        -2.687812        -0.651658         1.071333
 C        -1.891437        -0.509794         2.431406
 C        -1.453080         0.780483         1.791115
 C        -2.821409         1.030332         1.029118
 C        -2.009949         1.462437        -0.181169
 C        -0.909154         0.420461         0.302169
 O         0.475473         0.629163         0.235849
 C        -1.713464        -0.826766        -0.029917
 H        -4.459507        -1.576052         0.486236
 H        -2.675601        -0.345951         3.175379
 H        -1.194718        -1.302889         2.715668
 H        -0.749570         1.530759         2.157919
 H        -3.643215         1.586335         1.458596
 H        -2.317128         1.265352        -1.180124
 H        -1.908383         2.480601         0.158150
 H         0.878073         0.267183        -0.590628
 H        -2.241049        -0.866503        -1.011041
 H        -1.066931        -1.716071         0.220544
