19
Iteration:  4526
 O        -3.857807        -1.380741         1.176268
 C        -2.725255        -0.672871         1.170169
 C        -1.903923        -0.583863         2.418434
 C        -1.453870         0.782222         1.777707
 C        -2.897040         0.907897         1.044574
 C        -2.032034         1.532399        -0.207159
 C        -0.867641         0.561990         0.256818
 O         0.495433         0.532766         0.142308
 C        -1.608340        -0.821457         0.110492
 H        -4.264281        -1.143155         0.340130
 H        -2.574831        -0.401853         3.283579
 H        -1.167847        -1.470951         2.665457
 H        -1.060748         1.578547         2.441003
 H        -3.818505         1.264997         1.380430
 H        -2.303314         1.325920        -1.316724
 H        -1.952234         2.548970         0.128774
 H         0.993887         0.561649        -0.637928
 H        -1.982707        -0.993627        -0.892338
 H        -0.962453        -1.662325         0.343874
