19
Iteration:  4833charge 0 multiplicity 1
 O        -3.756722        -1.504256         1.087954
 C        -2.743195        -0.589639         1.115203
 C        -1.880724        -0.498383         2.490576
 C        -1.442549         0.741568         1.817539
 C        -2.775471         1.062772         1.058935
 C        -1.974419         1.463985        -0.224453
 C        -1.005828         0.478912         0.316477
 O         0.358268         0.590949         0.152824
 C        -1.634704        -0.848864         0.103383
 H        -4.385975        -1.288282         0.353221
 H        -2.594231        -0.281914         3.289998
 H        -1.118430        -1.239511         2.847113
 H        -0.836377         1.391708         2.497709
 H        -3.718345         1.383026         1.578087
 H        -2.329360         1.294644        -1.243902
 H        -1.346946         2.323290        -0.177496
 H         0.755600         0.431466        -0.759399
 H        -2.243886        -0.810497        -0.866278
 H        -1.074315        -1.798404         0.181570
