19
Iteration:   269charge 0 multiplicity 1
 O        -3.935923        -1.334956         1.074280
 C        -2.704748        -0.697629         1.121949
 C        -1.872992        -0.613763         2.478610
 C        -1.373213         0.683931         1.944372
 C        -2.746110         0.927295         1.191532
 C        -2.123923         1.449954        -0.113670
 C        -0.924515         0.570589         0.343853
 O         0.390836         0.712781        -0.187930
 C        -1.515886        -0.936097         0.139743
 H        -4.036436        -1.461289         0.144622
 H        -2.590115        -0.468856         3.304115
 H        -1.069975        -1.392866         2.618101
 H        -0.948235         1.529671         2.526005
 H        -3.584009         1.300301         1.697134
 H        -2.587085         1.102913        -1.093634
 H        -1.888190         2.510737        -0.065920
 H         0.434809         1.653713        -0.485232
 H        -1.789458        -1.156231        -0.958457
 H        -0.835636        -1.756703         0.531081
