19
Iteration:  3393
 O        -3.895926        -1.458030         1.213869
 C        -2.747629        -0.596140         1.087656
 C        -1.830813        -0.578114         2.385153
 C        -1.477915         0.821560         1.835919
 C        -2.794442         0.936713         1.010523
 C        -2.052409         1.446851        -0.188439
 C        -0.915385         0.525174         0.379525
 O         0.501699         0.640163         0.065155
 C        -1.696930        -0.863483         0.051748
 H        -4.175929        -1.511315         0.241712
 H        -2.419582        -0.476299         3.270222
 H        -0.927038        -1.200448         2.419867
 H        -0.858503         1.566354         2.258678
 H        -3.689899         1.324268         1.419953
 H        -2.507408         1.232259        -1.195364
 H        -1.742629         2.495075        -0.117595
 H         1.091621         0.421676         0.861370
 H        -1.934636        -0.866627        -0.990873
 H        -1.096674        -1.690775         0.302761
