19
Iteration:  2038charge 0 multiplicity 1
 O        -3.898426        -1.372136         0.971862
 C        -2.721563        -0.599608         1.191890
 C        -1.812651        -0.447454         2.485844
 C        -1.422754         0.883002         1.831942
 C        -2.779834         0.960885         1.108573
 C        -2.134767         1.313106        -0.265648
 C        -0.893719         0.397814         0.277701
 O         0.416270         0.733402         0.013636
 C        -1.656826        -0.961574         0.229186
 H        -3.406479        -2.146854         0.735270
 H        -2.446951        -0.293679         3.392967
 H        -1.009670        -1.235706         2.612287
 H        -0.821803         1.664946         2.363512
 H        -3.750214         1.452861         1.501954
 H        -2.665194         0.795924        -1.129162
 H        -1.905916         2.377269        -0.291328
 H         1.126102         0.405535         0.610586
 H        -2.031377        -0.983542        -0.801828
 H        -1.066536        -1.841646         0.591845
