19
Iteration:  3103charge 0 multiplicity 1
 O        -3.873751        -1.337937         1.075963
 C        -2.643891        -0.690465         1.151121
 C        -1.765144        -0.572450         2.422050
 C        -1.523055         0.827514         1.878309
 C        -2.805228         0.822074         1.054931
 C        -2.028738         1.388214        -0.209850
 C        -0.938191         0.594703         0.393836
 O         0.350796         0.534584         0.020576
 C        -1.539222        -0.844259         0.046382
 H        -4.704324        -0.765645         1.020286
 H        -2.145608        -0.454332         3.440591
 H        -0.821578        -1.082846         2.509399
 H        -1.136238         1.576870         2.525041
 H        -3.756032         1.160303         1.258907
 H        -2.378431         1.340482        -1.277318
 H        -2.011264         2.479696         0.149711
 H         0.610138         1.494458         0.239444
 H        -2.098595        -0.911331        -0.824876
 H        -1.017228        -1.781169         0.244532
