19
Iteration:  1726
 O        -3.829287        -1.529178         1.181837
 C        -2.674681        -0.643592         1.149532
 C        -1.765720        -0.503887         2.396843
 C        -1.506347         0.930884         1.791651
 C        -2.871385         0.900835         1.016363
 C        -2.062677         1.593414        -0.177302
 C        -0.962342         0.590532         0.368941
 O         0.441299         0.347876         0.053908
 C        -1.657639        -0.752791         0.037730
 H        -3.506262        -2.362373         0.899321
 H        -2.340081        -0.420718         3.315496
 H        -0.951684        -1.248777         2.445623
 H        -1.029434         1.784889         2.422069
 H        -3.903391         1.222410         1.436138
 H        -2.497845         1.594756        -1.170846
 H        -1.999996         2.663598         0.145632
 H         0.919131         1.164864         0.315782
 H        -2.119293        -0.715100        -0.934473
 H        -1.106409        -1.658971         0.024718
