19
Iteration:   285
 O        -3.867139        -1.381400         0.873231
 C        -2.680224        -0.604954         1.229256
 C        -1.984439        -0.647370         2.627899
 C        -1.315841         0.711232         1.942742
 C        -2.703011         0.942203         1.230317
 C        -2.044337         1.391590        -0.075627
 C        -0.910173         0.453686         0.321509
 O         0.240297         0.747390        -0.363542
 C        -1.482912        -0.888589         0.240483
 H        -4.119728        -1.282979        -0.021812
 H        -2.582941        -0.246645         3.463272
 H        -1.486870        -1.562371         2.949974
 H        -0.703100         1.371697         2.547106
 H        -3.657476         1.415210         1.720697
 H        -2.634494         1.167259        -1.019823
 H        -1.847119         2.498660         0.021340
 H         0.343850         1.709123        -0.273113
 H        -1.795102        -1.136365        -0.769572
 H        -0.787246        -1.568796         0.690778
