19
Iteration:  3209
 O        -3.968790        -1.295211         1.156087
 C        -2.686380        -0.727043         1.127288
 C        -1.793129        -0.569059         2.417722
 C        -1.450360         0.725404         1.759079
 C        -2.755804         0.943259         1.053483
 C        -2.144103         1.510185        -0.216805
 C        -0.965522         0.525156         0.343132
 O         0.446756         0.634157         0.172547
 C        -1.532992        -0.899859         0.102441
 H        -3.979982        -2.203216         0.715280
 H        -2.405647        -0.353515         3.282988
 H        -1.210192        -1.513804         2.388615
 H        -1.079244         1.623535         2.186946
 H        -3.558847         1.391588         1.608783
 H        -2.549135         1.224445        -1.167846
 H        -1.725479         2.499091        -0.180333
 H         0.613624         0.965911        -0.734990
 H        -1.844315        -0.994582        -1.040571
 H        -0.723826        -1.635701         0.335372
