19
Iteration:  2361charge 0 multiplicity 1
 O        -3.813017        -1.364891         1.058578
 C        -2.700491        -0.596860         1.144482
 C        -1.902190        -0.513013         2.437821
 C        -1.513379         0.878135         1.927957
 C        -2.813402         0.870815         1.161918
 C        -2.089346         1.412087        -0.189906
 C        -0.925820         0.523851         0.310760
 O         0.389575         0.592831        -0.110497
 C        -1.497775        -0.871087         0.192061
 H        -4.052432        -1.518167         0.091181
 H        -2.578651        -0.543282         3.326492
 H        -1.040696        -1.270864         2.568233
 H        -0.865398         1.684014         2.472490
 H        -3.844350         1.258537         1.509475
 H        -2.487371         1.214601        -1.232371
 H        -1.913701         2.531292        -0.156427
 H         0.836084        -0.110083         0.422150
 H        -1.930702        -1.137633        -0.845344
 H        -0.791038        -1.676819         0.527411
