19
Iteration:  2747
 O        -3.908710        -1.403875         1.189486
 C        -2.714881        -0.655919         1.032034
 C        -1.792511        -0.555980         2.367018
 C        -1.484729         0.794430         1.783725
 C        -2.839512         0.838309         1.000382
 C        -2.011204         1.514805        -0.040199
 C        -0.919841         0.539828         0.435395
 O         0.425760         0.616644         0.009801
 C        -1.638970        -0.844258        -0.015156
 H        -3.735302        -2.192043         1.738759
 H        -2.544951        -0.560017         3.188764
 H        -0.932620        -1.239988         2.465580
 H        -1.096566         1.637302         2.296840
 H        -3.614073         1.259032         1.535899
 H        -2.400015         1.490176        -1.115633
 H        -1.814557         2.608973         0.093610
 H         0.991347         0.919844         0.725297
 H        -1.971869        -0.572542        -1.035340
 H        -1.090718        -1.811860        -0.170618
