19
Iteration:  4071
 O        -3.996171        -1.222014         0.923127
 C        -2.639071        -0.687589         1.153665
 C        -1.958476        -0.674533         2.506877
 C        -1.433818         0.720368         1.902055
 C        -2.787521         0.929443         1.120192
 C        -2.056621         1.490153        -0.076974
 C        -0.860870         0.477399         0.367299
 O         0.407695         0.748433        -0.164066
 C        -1.527140        -0.951736         0.114003
 H        -4.246499        -2.199736         0.909578
 H        -2.552910        -0.416278         3.411359
 H        -1.209398        -1.499273         2.659967
 H        -1.062729         1.487466         2.679214
 H        -3.534578         1.336378         1.803123
 H        -2.529968         1.456421        -1.069816
 H        -1.596757         2.518979         0.059189
 H         1.157802         0.553941         0.460961
 H        -1.677801        -0.955466        -0.925118
 H        -0.927405        -1.817228         0.479490
