19
Iteration:  3171
 O        -3.825789        -1.447837         0.901666
 C        -2.727284        -0.669103         1.197889
 C        -2.009949        -0.495460         2.550448
 C        -1.489231         0.849407         1.903763
 C        -2.737642         0.984336         1.162127
 C        -1.975581         1.489877        -0.109553
 C        -0.879181         0.435749         0.395864
 O         0.390046         0.601161        -0.165316
 C        -1.578612        -0.898579         0.135805
 H        -3.761395        -2.347719         1.299225
 H        -2.684899        -0.230495         3.399943
 H        -1.345137        -1.247855         2.987202
 H        -1.005354         1.619713         2.557912
 H        -3.602219         1.585064         1.585416
 H        -2.437393         1.322619        -1.123178
 H        -1.700268         2.576587        -0.002431
 H         0.262672         0.992059        -1.074406
 H        -1.816603        -0.790847        -0.889455
 H        -0.917690        -1.771339         0.310043
