19
Iteration:  3183
 O        -3.919621        -1.387204         0.967900
 C        -2.661119        -0.656178         1.127729
 C        -1.895779        -0.476361         2.500976
 C        -1.469399         0.818164         1.949576
 C        -2.833310         0.917591         1.067109
 C        -2.023166         1.465539        -0.039059
 C        -0.932842         0.536330         0.344862
 O         0.458516         0.556458        -0.115516
 C        -1.555241        -0.864701         0.176608
 H        -3.690434        -2.356378         1.090456
 H        -2.678196        -0.371394         3.276510
 H        -1.161688        -1.290991         2.608299
 H        -1.063042         1.769826         2.401584
 H        -3.902505         1.242150         1.411421
 H        -2.401573         1.353078        -1.077146
 H        -1.594280         2.462858         0.140178
 H         0.455288         0.910814        -1.026223
 H        -2.063978        -1.143166        -0.756183
 H        -0.822596        -1.648075         0.432944
