19
Iteration:  4748
 O        -3.874495        -1.396189         0.996364
 C        -2.769377        -0.599479         1.201704
 C        -2.026966        -0.562455         2.436191
 C        -1.370914         0.724528         1.763835
 C        -2.718207         1.046654         1.152087
 C        -2.089720         1.450139        -0.129327
 C        -0.918594         0.450048         0.327111
 O         0.465792         0.758554         0.008221
 C        -1.538604        -1.028725         0.231163
 H        -4.150850        -1.557784         0.110522
 H        -2.738741        -0.354508         3.288287
 H        -1.348866        -1.404252         2.731640
 H        -0.732242         1.447516         2.238646
 H        -3.556828         1.693658         1.607484
 H        -2.672229         1.324420        -1.050924
 H        -1.609592         2.460423        -0.182715
 H         0.701857         0.565706        -0.878370
 H        -1.851960        -1.350704        -0.741237
 H        -1.062174        -1.866750         0.690812
