19
Iteration:  4859
 O        -3.964696        -1.454656         1.094264
 C        -2.786851        -0.653311         1.153814
 C        -2.029822        -0.515877         2.474564
 C        -1.416932         0.797814         1.793090
 C        -2.735611         0.952368         1.073489
 C        -2.052694         1.418096        -0.106989
 C        -0.854627         0.530422         0.389838
 O         0.576489         0.712774        -0.064164
 C        -1.581715        -0.880623         0.157103
 H        -4.024003        -1.682960         0.119146
 H        -2.776201        -0.293721         3.322329
 H        -1.449925        -1.397071         2.840632
 H        -1.027518         1.554215         2.414487
 H        -3.578549         1.297112         1.731812
 H        -2.468700         1.200812        -1.073523
 H        -1.730059         2.495407         0.018672
 H         0.849082         0.116647        -0.840937
 H        -1.946079        -0.969102        -0.847012
 H        -0.886745        -1.712930         0.293783
