19
Iteration:  1211
 O        -4.039394        -1.412630         1.330820
 C        -2.769727        -0.635474         1.044979
 C        -1.793189        -0.678138         2.285766
 C        -1.355181         0.647149         1.800868
 C        -2.773346         0.921140         1.088143
 C        -1.992995         1.542427        -0.140156
 C        -0.953445         0.541389         0.321632
 O         0.463510         0.788904         0.086145
 C        -1.666597        -0.887950        -0.142395
 H        -3.617898        -2.247947         1.672280
 H        -2.184352        -0.688709         3.274454
 H        -0.999458        -1.405931         2.272550
 H        -0.771170         1.361716         2.483516
 H        -3.659307         1.456301         1.554829
 H        -2.507832         1.406301        -1.078507
 H        -1.777500         2.572067        -0.029328
 H         0.665454         1.357305         0.840784
 H        -2.002555        -0.983474        -1.162929
 H        -1.037369        -1.731216         0.067025
