19
Iteration:  4599charge 0 multiplicity 1
 O        -3.979425        -1.426118         1.022047
 C        -2.769014        -0.679007         1.195639
 C        -1.957822        -0.532067         2.472403
 C        -1.378653         0.767958         1.798037
 C        -2.813098         0.999045         1.100860
 C        -2.060447         1.453197        -0.113605
 C        -0.934061         0.564728         0.387301
 O         0.560581         0.624266        -0.046074
 C        -1.515504        -0.903587         0.182402
 H        -3.969161        -1.551333         0.071405
 H        -2.579527        -0.099796         3.271693
 H        -1.362518        -1.364000         2.756552
 H        -0.941140         1.501641         2.427255
 H        -3.728563         1.542854         1.485553
 H        -2.560609         1.196410        -1.015838
 H        -1.703761         2.463624         0.040391
 H         0.613421         0.455839        -0.988628
 H        -1.843182        -1.143179        -0.868192
 H        -0.830699        -1.696443         0.608233
