19
Iteration:  2213
 O        -3.747184        -1.571663         1.247483
 C        -2.742722        -0.657175         1.165449
 C        -2.025052        -0.491937         2.447368
 C        -1.473420         0.826748         1.816053
 C        -2.774701         1.026660         0.978659
 C        -1.964671         1.494471        -0.232957
 C        -0.969476         0.470176         0.307166
 O         0.438664         0.682957        -0.031654
 C        -1.655690        -0.850993         0.125473
 H        -3.931549        -2.104237         0.476424
 H        -2.689030        -0.278909         3.312781
 H        -1.260021        -1.205512         2.797738
 H        -1.048465         1.644408         2.446531
 H        -3.578420         1.602961         1.511966
 H        -2.493379         1.466913        -1.224238
 H        -1.522925         2.505304        -0.085508
 H         0.998170        -0.102623         0.209843
 H        -2.049928        -0.925923        -0.879187
 H        -0.970656        -1.677904         0.369752
