19
Iteration:    78
 O        -3.796125        -1.559931         1.079355
 C        -2.707319        -0.634306         1.147060
 C        -1.825546        -0.492795         2.461905
 C        -1.471062         0.795634         1.830619
 C        -2.899977         0.954330         1.033356
 C        -2.052460         1.541433        -0.148076
 C        -0.956923         0.511085         0.342860
 O         0.434509         0.629478        -0.018478
 C        -1.632831        -0.797894         0.033648
 H        -4.004038        -1.745164         2.065863
 H        -2.346210        -0.229070         3.390632
 H        -1.133007        -1.304003         2.697906
 H        -1.028651         1.623698         2.313818
 H        -3.747094         1.483481         1.564082
 H        -2.318151         1.407681        -1.161542
 H        -1.640420         2.565406         0.013033
 H         0.832858        -0.266960        -0.086290
 H        -2.072611        -1.086302        -0.916800
 H        -0.956436        -1.571067         0.393024
