19
Iteration:   773
 O        -3.951723        -1.406330         0.994029
 C        -2.703579        -0.626293         1.177032
 C        -1.870653        -0.588165         2.473146
 C        -1.437179         0.765549         1.839182
 C        -2.757158         0.913490         1.113811
 C        -2.024886         1.359870        -0.166064
 C        -0.876582         0.461289         0.319172
 O         0.387432         0.847191        -0.122223
 C        -1.587541        -0.875168         0.155518
 H        -4.290882        -1.554981         1.890857
 H        -2.542638        -0.602381         3.416160
 H        -0.986625        -1.239057         2.766716
 H        -0.983959         1.622945         2.508235
 H        -3.569892         1.408188         1.554516
 H        -2.532568         1.174700        -1.135487
 H        -1.820582         2.386709        -0.095051
 H         1.092372         0.258092         0.246691
 H        -1.974471        -1.123410        -0.869889
 H        -1.025629        -1.783315         0.484703
