19
Iteration:  3956charge 0 multiplicity 1
 O        -3.888573        -1.501192         0.769499
 C        -2.785108        -0.625469         1.206924
 C        -2.060837        -0.536843         2.605606
 C        -1.312438         0.707645         1.866731
 C        -2.705194         0.954927         1.198757
 C        -2.070385         1.423070        -0.086616
 C        -0.868659         0.526285         0.330986
 O         0.477407         0.788610        -0.189358
 C        -1.581734        -0.885029         0.229400
 H        -4.655932        -1.088484         1.240251
 H        -2.714983        -0.040213         3.393215
 H        -1.446694        -1.404002         3.000510
 H        -0.725063         1.394154         2.475962
 H        -3.496433         1.426901         1.805436
 H        -2.538095         1.158640        -1.101865
 H        -1.874905         2.532083        -0.083099
 H         0.924621        -0.085700        -0.229204
 H        -1.958753        -0.900615        -0.828509
 H        -1.068571        -1.844865         0.481495
