19
Iteration:  3811
 O        -3.893282        -1.330440         0.904923
 C        -2.681949        -0.679835         1.122027
 C        -1.979766        -0.514202         2.552983
 C        -1.469242         0.800927         1.902251
 C        -2.779889         0.938691         1.143223
 C        -2.027950         1.373302        -0.104629
 C        -0.928602         0.455281         0.335568
 O         0.441376         0.716204        -0.111748
 C        -1.526793        -0.905623         0.132548
 H        -4.470188        -1.373131         1.655950
 H        -2.677499        -0.339230         3.384076
 H        -1.418041        -1.345299         2.884449
 H        -0.853826         1.600815         2.405412
 H        -3.739153         1.294768         1.541009
 H        -2.365377         1.116840        -1.076454
 H        -1.689532         2.424219         0.021213
 H         1.026329         0.008010        -0.366327
 H        -1.833194        -0.990839        -0.886826
 H        -0.770430        -1.664834         0.401446
