19
Iteration:  2951
 O        -3.907641        -1.422209         1.170148
 C        -2.786188        -0.649391         1.117460
 C        -1.959002        -0.586185         2.475340
 C        -1.357288         0.758804         1.863680
 C        -2.741603         0.924817         1.077032
 C        -1.980178         1.351512        -0.151494
 C        -0.872683         0.434592         0.342244
 O         0.421863         0.824947        -0.072222
 C        -1.605776        -0.895041         0.064637
 H        -4.319997        -1.739302         0.321327
 H        -2.675889        -0.253803         3.238400
 H        -1.370563        -1.429577         2.822561
 H        -0.805729         1.545612         2.362282
 H        -3.600959         1.497315         1.253482
 H        -2.272672         1.211548        -1.154932
 H        -1.812067         2.376801        -0.034330
 H         0.713349         1.508724         0.594028
 H        -2.104563        -0.831349        -0.892733
 H        -1.094179        -1.881763         0.132546
