19
Iteration:  4475charge 0 multiplicity 1
 O        -3.818952        -1.520492         1.171464
 C        -2.834319        -0.597642         1.187068
 C        -2.011480        -0.564356         2.448443
 C        -1.409646         0.671454         1.731538
 C        -2.771643         1.046329         0.991563
 C        -1.999803         1.518641        -0.235496
 C        -0.894881         0.509560         0.343333
 O         0.543858         0.675210         0.121770
 C        -1.678021        -0.833115         0.140826
 H        -4.058073        -1.501438         0.250952
 H        -2.500422        -0.557753         3.389499
 H        -1.408291        -1.419445         2.577791
 H        -0.933406         1.514583         2.323620
 H        -3.615041         1.545715         1.477688
 H        -2.548811         1.526909        -1.158312
 H        -1.665082         2.573257        -0.000716
 H         0.716319        -0.014285        -0.547817
 H        -2.095128        -0.923546        -0.945299
 H        -1.039601        -1.709500         0.339266
