19
Iteration:  3476charge 0 multiplicity 1
 O        -3.966725        -1.337700         1.046894
 C        -2.668705        -0.654974         1.108822
 C        -1.913423        -0.548146         2.531193
 C        -1.498871         0.803824         1.997714
 C        -2.799633         0.952975         1.007980
 C        -1.999346         1.421875        -0.182200
 C        -0.909287         0.516361         0.365767
 O         0.368224         0.731059        -0.156968
 C        -1.456948        -1.004503         0.245629
 H        -4.176486        -1.438206         0.123406
 H        -2.608939        -0.512763         3.422932
 H        -1.212686        -1.344218         2.867619
 H        -0.982376         1.606364         2.505075
 H        -3.661767         1.479822         1.529656
 H        -2.252817         1.205799        -1.228190
 H        -1.781281         2.481141        -0.156720
 H         0.948168         0.005567        -0.247502
 H        -1.693506        -1.192592        -0.870919
 H        -0.805607        -1.905049         0.590877
