19
Iteration:  4019charge 0 multiplicity 1
 O        -3.946801        -1.511366         1.084430
 C        -2.706849        -0.643339         1.065816
 C        -1.939681        -0.620050         2.444180
 C        -1.491168         0.763117         1.848559
 C        -2.770457         0.968768         1.118475
 C        -2.005758         1.577148        -0.151465
 C        -0.896643         0.567581         0.252315
 O         0.595385         0.656049         0.103414
 C        -1.688454        -0.810532        -0.048264
 H        -4.133460        -1.899168         1.998879
 H        -2.411873        -0.589824         3.422024
 H        -1.105396        -1.240922         2.650826
 H        -0.925201         1.624255         2.369488
 H        -3.676948         1.490097         1.480846
 H        -2.494462         1.362650        -1.038429
 H        -1.869639         2.634625         0.096020
 H         0.854816        -0.310688         0.314191
 H        -2.228305        -0.700315        -0.962794
 H        -1.146551        -1.794439        -0.026096
