19
Iteration:  3264
 O        -3.964601        -1.460312         1.109062
 C        -2.761546        -0.720684         1.162259
 C        -1.916982        -0.523515         2.490785
 C        -1.456136         0.766845         1.874803
 C        -2.748391         0.958582         1.102804
 C        -1.973824         1.523926        -0.178459
 C        -0.938597         0.537228         0.284222
 O         0.439314         0.714277        -0.033209
 C        -1.570444        -0.864724         0.136676
 H        -3.822549        -2.002317         0.333028
 H        -2.609751        -0.446719         3.325647
 H        -1.347617        -1.440369         2.747389
 H        -0.815661         1.432871         2.385930
 H        -3.609725         1.438051         1.424966
 H        -2.195762         1.491187        -1.218270
 H        -1.772995         2.551101         0.096536
 H         0.820584         0.057960        -0.601456
 H        -1.752008        -1.091184        -0.990244
 H        -0.857534        -1.659051         0.486259
