19
Iteration:  1201charge 0 multiplicity 1
 O        -3.995817        -1.327236         1.214561
 C        -2.746764        -0.677283         1.085970
 C        -1.742466        -0.673690         2.385815
 C        -1.420827         0.667851         1.761101
 C        -2.754970         0.897328         1.097124
 C        -2.094958         1.508708        -0.057644
 C        -0.881667         0.508563         0.291992
 O         0.444879         0.740775         0.039189
 C        -1.637944        -0.840660        -0.048273
 H        -3.791185        -2.311317         1.406187
 H        -2.368466        -0.651374         3.249749
 H        -1.000932        -1.457133         2.361333
 H        -0.898975         1.457050         2.335559
 H        -3.722089         1.301871         1.511515
 H        -2.511871         1.352328        -1.057725
 H        -1.835698         2.539821         0.151176
 H         0.788945         1.528119         0.456392
 H        -2.174824        -0.796276        -0.996867
 H        -1.069399        -1.746528         0.002736
