19
Iteration:  4745charge 0 multiplicity 1
 O        -3.889123        -1.406426         0.979987
 C        -2.759908        -0.570078         1.189343
 C        -2.027778        -0.568503         2.466624
 C        -1.365846         0.721833         1.758553
 C        -2.748712         1.053127         1.159671
 C        -2.089414         1.437156        -0.124528
 C        -0.902557         0.466384         0.291183
 O         0.462427         0.743017         0.005785
 C        -1.528942        -1.025490         0.259266
 H        -4.152770        -1.550875         0.040776
 H        -2.655060        -0.311998         3.312218
 H        -1.376919        -1.433401         2.772047
 H        -0.723479         1.488752         2.299611
 H        -3.457186         1.695526         1.684594
 H        -2.614806         1.263686        -1.068986
 H        -1.758238         2.442233        -0.075592
 H         0.723451         0.575582        -0.943431
 H        -1.854629        -1.310020        -0.785711
 H        -0.976290        -1.894461         0.670546
