19
Iteration:  3771
 O        -3.967486        -1.373288         0.876398
 C        -2.769279        -0.636599         1.251147
 C        -1.922892        -0.639667         2.529498
 C        -1.380452         0.716029         1.838517
 C        -2.705364         1.016602         1.185825
 C        -1.998000         1.333902        -0.217700
 C        -0.889875         0.433806         0.290920
 O         0.392862         0.900199        -0.098420
 C        -1.559776        -0.955032         0.215812
 H        -4.724872        -0.752016         1.067274
 H        -2.391326        -0.388182         3.501906
 H        -1.186578        -1.512296         2.636460
 H        -0.628024         1.336457         2.252437
 H        -3.589307         1.624287         1.396040
 H        -2.614926         0.900682        -1.057552
 H        -1.743501         2.415821        -0.283886
 H         0.872429         0.341278         0.606417
 H        -1.862932        -1.357904        -0.764054
 H        -0.982425        -1.740019         0.730403
