19
Iteration:  3252charge 0 multiplicity 1
 O        -3.923888        -1.441354         1.134556
 C        -2.730572        -0.623439         1.190699
 C        -1.966784        -0.641523         2.463744
 C        -1.382542         0.739414         1.775853
 C        -2.778985         0.958715         1.061123
 C        -1.941934         1.466547        -0.209517
 C        -0.887616         0.470449         0.302020
 O         0.450378         0.830901         0.073606
 C        -1.685591        -0.885175         0.123017
 H        -3.932614        -2.175356         0.442379
 H        -2.519546        -0.305969         3.321526
 H        -1.105783        -1.296441         2.666369
 H        -0.987686         1.563580         2.315013
 H        -3.583846         1.466067         1.571597
 H        -2.427775         1.283104        -1.144593
 H        -1.572683         2.465592        -0.138468
 H         0.873061         0.199209        -0.583716
 H        -2.357783        -0.924567        -0.816109
 H        -1.073657        -1.799966         0.235456
