19
Iteration:  2810
 O        -3.920394        -1.269995         0.927215
 C        -2.664061        -0.700275         1.153072
 C        -1.936038        -0.589852         2.617315
 C        -1.474572         0.798819         2.023165
 C        -2.803290         0.861611         1.158395
 C        -2.013900         1.415887        -0.030665
 C        -0.862077         0.508938         0.374912
 O         0.384042         0.636170        -0.305105
 C        -1.535740        -0.869189         0.151580
 H        -3.689543        -2.090921         0.388914
 H        -2.781275        -0.474946         3.311960
 H        -1.202711        -1.330512         2.948919
 H        -1.109051         1.652507         2.580277
 H        -3.682022         1.291544         1.538400
 H        -2.391485         1.158756        -1.060820
 H        -1.778088         2.485644        -0.136671
 H         0.561760         1.555746        -0.625493
 H        -1.820262        -0.994747        -0.926609
 H        -0.803209        -1.703188         0.325341
