19
Iteration:   405charge 0 multiplicity 1
 O        -3.783434        -1.526970         1.305502
 C        -2.734752        -0.648178         1.091127
 C        -1.804363        -0.625190         2.298430
 C        -1.430017         0.767404         1.827130
 C        -2.829589         0.950700         1.086266
 C        -2.089691         1.532940        -0.135952
 C        -0.926539         0.557245         0.284301
 O         0.453865         0.586121         0.073193
 C        -1.691517        -0.791697        -0.076969
 H        -4.553581        -1.269081         0.687671
 H        -2.321814        -0.646664         3.296903
 H        -1.029277        -1.409804         2.274435
 H        -0.798214         1.535544         2.363489
 H        -3.762593         1.440586         1.544178
 H        -2.550320         1.628742        -1.160838
 H        -1.822016         2.497236         0.275518
 H         0.725866         1.245138         0.748188
 H        -2.272439        -0.754920        -1.020310
 H        -1.010510        -1.624178         0.116647
