19
Iteration:   169
 O        -3.798521        -1.513523         1.059907
 C        -2.698600        -0.643625         1.237874
 C        -1.996216        -0.509446         2.570953
 C        -1.425342         0.817533         1.829511
 C        -2.782721         0.957359         1.110128
 C        -2.090418         1.456696        -0.116804
 C        -0.914658         0.502978         0.330273
 O         0.353923         0.568123        -0.254004
 C        -1.509320        -0.829182         0.154952
 H        -3.969097        -1.534970         0.117830
 H        -2.720734        -0.187859         3.368809
 H        -1.323831        -1.325404         2.935424
 H        -0.918643         1.614938         2.482876
 H        -3.606048         1.614544         1.555535
 H        -2.529655         1.343717        -1.121870
 H        -1.829991         2.542988         0.122330
 H         0.889814         1.071638         0.360355
 H        -1.947684        -0.995015        -0.866327
 H        -0.675991        -1.538062         0.414739
