19
Iteration:  4502charge 0 multiplicity 1
 O        -3.850739        -1.501028         1.214629
 C        -2.751723        -0.672591         1.022757
 C        -1.862477        -0.451807         2.430144
 C        -1.427885         0.849931         1.830445
 C        -2.723345         1.025229         1.044470
 C        -1.948545         1.494902        -0.177178
 C        -0.925822         0.479446         0.394377
 O         0.366552         0.569182         0.234605
 C        -1.675130        -0.912385        -0.104449
 H        -4.339034        -1.325686         0.407573
 H        -2.645457        -0.535574         3.272369
 H        -0.995269        -1.187459         2.686997
 H        -1.080509         1.737076         2.299132
 H        -3.670892         1.492589         1.415825
 H        -2.504766         1.247080        -1.108148
 H        -1.709019         2.532129         0.016073
 H         0.613159         0.364675        -0.721602
 H        -1.815989        -0.829732        -1.145777
 H        -1.075242        -1.823596         0.094517
