19
Iteration:   738
 O        -3.606070        -1.706920         1.087488
 C        -2.704131        -0.603712         1.133997
 C        -1.885079        -0.436710         2.419209
 C        -1.503466         0.878470         1.814962
 C        -2.804405         1.028921         1.130962
 C        -2.052752         1.632225        -0.086227
 C        -0.962252         0.495034         0.275069
 O         0.371830         0.435491         0.010322
 C        -1.689211        -0.732261         0.020894
 H        -4.524339        -1.409961         1.272640
 H        -2.763968        -0.307805         3.083505
 H        -1.059764        -1.137242         2.807314
 H        -0.983447         1.694267         2.409327
 H        -3.634578         1.564483         1.622155
 H        -2.566980         1.617131        -1.024030
 H        -1.790218         2.660755         0.190965
 H         0.702289        -0.499823        -0.045319
 H        -2.112293        -0.842586        -0.957879
 H        -1.044848        -1.630580         0.239440
