19
Iteration:  1477
 O        -3.961460        -1.198519         0.895487
 C        -2.646179        -0.682027         1.162165
 C        -1.823067        -0.500703         2.669642
 C        -1.415915         0.746557         1.809123
 C        -2.654038         0.796115         1.115971
 C        -2.201119         1.208685        -0.265780
 C        -0.889569         0.402907         0.363840
 O         0.288558         0.981598        -0.166694
 C        -1.478776        -1.081514         0.282705
 H        -4.592143        -0.538106         1.156975
 H        -2.498017        -0.106302         3.431027
 H        -1.210616        -1.155642         3.299227
 H        -0.907435         1.722349         2.222649
 H        -3.686539         1.105899         1.592864
 H        -2.598231         0.765693        -1.161263
 H        -1.847781         2.255703        -0.431679
 H         1.033736         0.612506         0.362946
 H        -1.514316        -1.404099        -0.785642
 H        -0.864009        -1.939716         0.658968
