19
Iteration:   830
 O        -3.954472        -1.308022         0.993265
 C        -2.720834        -0.635494         1.212614
 C        -1.906952        -0.571582         2.511443
 C        -1.335685         0.753242         1.828052
 C        -2.772854         0.932764         1.172122
 C        -2.144368         1.355621        -0.162620
 C        -0.898348         0.480030         0.313045
 O         0.413849         0.866218        -0.155203
 C        -1.520832        -1.014703         0.204148
 H        -3.884578        -1.828736         0.138841
 H        -2.497032        -0.122701         3.383108
 H        -1.283567        -1.453892         2.848541
 H        -0.872770         1.535132         2.450738
 H        -3.670267         1.315296         1.705107
 H        -2.716007         0.931487        -1.011626
 H        -2.008000         2.454719        -0.263188
 H         1.092932         0.276582         0.203796
 H        -1.771873        -1.338769        -0.873855
 H        -0.895436        -1.765063         0.731556
