19
Iteration:  1755charge 0 multiplicity 1
 O        -3.867646        -1.514709         1.385563
 C        -2.754075        -0.632865         1.065351
 C        -1.791915        -0.629609         2.326461
 C        -1.444576         0.799659         1.758626
 C        -2.809881         1.079281         1.075376
 C        -1.948997         1.525540        -0.275825
 C        -1.001742         0.457857         0.340322
 O         0.448233         0.676528         0.195222
 C        -1.700916        -0.880669        -0.113911
 H        -3.729253        -2.234868         0.712780
 H        -2.433077        -0.429243         3.221912
 H        -1.091770        -1.485925         2.527744
 H        -0.777064         1.366466         2.343450
 H        -3.619765         1.507878         1.671608
 H        -2.528350         1.228482        -1.221339
 H        -1.735286         2.606226        -0.264942
 H         0.643880         1.638938         0.357371
 H        -2.080250        -0.937026        -1.195462
 H        -1.265694        -1.961650         0.123503
