19
Iteration:  1313charge 0 multiplicity 1
 O        -3.844469        -1.346717         0.800209
 C        -2.725495        -0.683360         1.224816
 C        -2.050153        -0.543272         2.617252
 C        -1.343515         0.690446         1.911608
 C        -2.661916         0.936432         1.259784
 C        -2.066932         1.386013        -0.021828
 C        -0.906807         0.441772         0.341486
 O         0.261298         0.869158        -0.360745
 C        -1.388198        -1.005101         0.292604
 H        -4.540113        -0.668253         0.690096
 H        -2.652583        -0.241347         3.479005
 H        -1.529952        -1.481862         2.824827
 H        -0.992592         1.353956         2.607259
 H        -3.464807         1.470743         1.755372
 H        -2.639367         0.966079        -0.860722
 H        -1.747077         2.467882        -0.224966
 H         0.240089         0.571628        -1.294824
 H        -1.740539        -1.341118        -0.681536
 H        -0.633392        -1.609227         0.828465
