19
Iteration:  2377charge 0 multiplicity 1
 O        -3.834731        -1.508856         1.178781
 C        -2.655595        -0.713262         1.119597
 C        -1.882318        -0.528513         2.516571
 C        -1.488665         0.850601         1.835762
 C        -2.824700         0.972467         0.962389
 C        -2.028551         1.551277        -0.149442
 C        -0.929895         0.596337         0.425274
 O         0.417897         0.504946        -0.107397
 C        -1.639539        -0.820677         0.094498
 H        -3.944004        -1.756233         0.207836
 H        -2.561459        -0.349711         3.345274
 H        -1.169094        -1.262371         2.803614
 H        -1.322229         1.701199         2.417499
 H        -3.683604         1.391183         1.401852
 H        -2.361266         1.443167        -1.174893
 H        -1.828549         2.595136        -0.009319
 H         1.002774         0.261096         0.614305
 H        -1.905894        -0.716596        -0.932943
 H        -0.918072        -1.629514         0.203037
