19
Iteration:  4214charge 0 multiplicity 1
 O        -3.930276        -1.451825         0.855981
 C        -2.771985        -0.609373         1.202943
 C        -1.869135        -0.598004         2.475303
 C        -1.372007         0.753298         1.831667
 C        -2.751078         0.983835         1.161497
 C        -2.057626         1.462631        -0.167372
 C        -0.923373         0.504659         0.308605
 O         0.539051         0.687172         0.126094
 C        -1.670226        -0.844529         0.057207
 H        -4.433814        -1.678893         1.703260
 H        -2.455221        -0.257688         3.346322
 H        -1.309676        -1.511743         2.653326
 H        -0.813928         1.505238         2.468908
 H        -3.567499         1.360439         1.782783
 H        -2.616305         1.385227        -1.080421
 H        -1.942203         2.557023        -0.047705
 H         0.814900         0.158680        -0.686562
 H        -2.145937        -0.901481        -0.875717
 H        -1.031372        -1.690171         0.252745
