19
Iteration:  1581
 O        -3.622846        -1.729442         1.178274
 C        -2.718842        -0.599565         1.159434
 C        -1.996714        -0.428546         2.448849
 C        -1.497114         0.926691         1.812220
 C        -2.880183         1.072458         1.040455
 C        -1.984094         1.601405        -0.266178
 C        -0.944971         0.556498         0.316602
 O         0.391727         0.393354         0.061258
 C        -1.683235        -0.726909         0.040209
 H        -3.161790        -2.281831         1.883644
 H        -2.648901        -0.212569         3.297890
 H        -1.266766        -1.227199         2.525358
 H        -1.069102         1.747258         2.267680
 H        -3.679484         1.638920         1.361988
 H        -2.516396         1.531056        -1.260657
 H        -1.647288         2.570076         0.097724
 H         0.684176        -0.476929        -0.155566
 H        -2.202455        -0.566917        -0.881780
 H        -1.082114        -1.655909         0.086357
