19
Iteration:  2485charge 0 multiplicity 1
 O        -3.866883        -1.354411         0.880825
 C        -2.649099        -0.661228         1.163225
 C        -1.975528        -0.555160         2.583970
 C        -1.439654         0.798590         1.943012
 C        -2.727119         0.977683         1.231633
 C        -2.056007         1.347195        -0.099109
 C        -0.963584         0.503161         0.260062
 O         0.313802         0.627704        -0.259595
 C        -1.439484        -0.937961         0.288782
 H        -4.079597        -1.157160        -0.088390
 H        -2.737044        -0.179470         3.298137
 H        -1.363521        -1.353107         2.990619
 H        -0.941595         1.601588         2.419189
 H        -3.465127         1.549502         1.690903
 H        -2.565799         1.211776        -1.043958
 H        -1.652115         2.327502         0.032832
 H         0.530718         1.592384        -0.158510
 H        -1.797785        -1.405681        -0.638949
 H        -0.825621        -1.715291         0.764290
