19
Iteration:  2206
 O        -3.809588        -1.542415         1.257270
 C        -2.731344        -0.648977         1.129434
 C        -1.973482        -0.485659         2.459996
 C        -1.545087         0.843765         1.853650
 C        -2.773910         1.000925         0.985492
 C        -1.957685         1.465675        -0.199739
 C        -0.908853         0.501683         0.285443
 O         0.453107         0.708161        -0.092780
 C        -1.616315        -0.885904         0.187628
 H        -3.936573        -1.837785         0.361978
 H        -2.749452        -0.482218         3.255411
 H        -1.346963        -1.375902         2.699489
 H        -1.235030         1.626351         2.457067
 H        -3.614165         1.523927         1.301767
 H        -2.413961         1.357882        -1.181032
 H        -1.666133         2.487630         0.123708
 H         1.053611        -0.046108        -0.004838
 H        -1.947265        -1.048472        -0.887437
 H        -1.109318        -1.830066         0.496570
