19
Iteration:  2668
 O        -3.807368        -1.311796         0.811056
 C        -2.660695        -0.656687         1.226808
 C        -1.927120        -0.614588         2.660157
 C        -1.392474         0.769802         1.946999
 C        -2.685462         1.014077         1.200452
 C        -2.190524         1.495082        -0.159343
 C        -0.912734         0.524484         0.421967
 O         0.367656         0.586310        -0.199525
 C        -1.620998        -0.939489         0.134257
 H        -3.660023        -2.186570         0.358959
 H        -2.545170        -0.449078         3.562227
 H        -1.206385        -1.423406         2.896302
 H        -0.950259         1.526645         2.572992
 H        -3.612496         1.371440         1.659912
 H        -2.736099         0.998549        -0.992977
 H        -1.804420         2.539324        -0.142581
 H         0.393777         1.436422        -0.634344
 H        -1.993028        -1.022411        -0.922177
 H        -0.920228        -1.772937         0.350164
