19
Iteration:   209
 O        -3.646483        -1.744308         1.342033
 C        -2.722780        -0.663227         1.115237
 C        -1.856087        -0.501013         2.348163
 C        -1.445454         0.829221         1.765030
 C        -2.868164         1.142568         1.037742
 C        -1.993764         1.591009        -0.138198
 C        -1.010171         0.559275         0.296816
 O         0.396955         0.393527         0.114018
 C        -1.753378        -0.716836        -0.080820
 H        -4.225707        -1.760149         0.513524
 H        -2.353820        -0.592190         3.294110
 H        -1.061411        -1.223571         2.392986
 H        -1.071208         1.751953         2.181668
 H        -3.765470         1.708892         1.499682
 H        -2.402463         1.738451        -1.101147
 H        -1.605351         2.620582         0.122983
 H         0.863095         1.141346         0.587435
 H        -2.165647        -0.560873        -1.057366
 H        -1.169529        -1.606341        -0.174067
