19
Iteration:  4272charge 0 multiplicity 1
 O        -3.980413        -1.350869         0.958510
 C        -2.787361        -0.557420         1.109920
 C        -1.974110        -0.582594         2.547921
 C        -1.493264         0.710251         1.901791
 C        -2.779752         0.925516         1.101582
 C        -1.973917         1.505269        -0.134393
 C        -0.844859         0.466605         0.455804
 O         0.522608         0.650542        -0.197444
 C        -1.524509        -0.941529         0.232650
 H        -3.784887        -1.989238         0.295861
 H        -2.615944        -0.478954         3.461047
 H        -1.261213        -1.383347         2.766419
 H        -1.017477         1.493005         2.430431
 H        -3.707986         1.272892         1.697447
 H        -2.480107         1.393231        -1.116324
 H        -1.739300         2.493908         0.321448
 H         0.445652         1.457138        -0.709377
 H        -1.804527        -1.018890        -0.857175
 H        -0.927137        -1.827745         0.619206
