19
Iteration:   695charge 0 multiplicity 1
 O        -3.737767        -1.684500         1.189877
 C        -2.758581        -0.694772         1.151144
 C        -1.900945        -0.546063         2.439752
 C        -1.420482         0.825695         1.793081
 C        -2.754927         1.000996         1.063722
 C        -1.973162         1.556901        -0.193466
 C        -0.988874         0.588823         0.303591
 O         0.381942         0.574731         0.067733
 C        -1.659647        -0.769704         0.069369
 H        -4.649478        -1.317557         1.034449
 H        -2.476932        -0.112160         3.265449
 H        -1.256529        -1.399640         2.643418
 H        -1.076912         1.755274         2.355886
 H        -3.523756         1.589773         1.543071
 H        -2.361726         1.473739        -1.193810
 H        -1.635753         2.555292         0.007702
 H         0.425374         0.491983        -0.926816
 H        -2.120214        -0.762250        -0.912816
 H        -0.896241        -1.556023         0.218284
