19
Iteration:  1591charge 0 multiplicity 1
 O        -3.727171        -1.712068         1.162118
 C        -2.741694        -0.590261         1.113656
 C        -1.867089        -0.426342         2.387165
 C        -1.448134         0.899494         1.754098
 C        -2.823628         1.098447         1.004948
 C        -2.049542         1.541381        -0.209127
 C        -1.000899         0.550114         0.363617
 O         0.435460         0.466518         0.139980
 C        -1.708783        -0.733699         0.093627
 H        -3.300856        -2.408118         1.703102
 H        -2.494670        -0.398090         3.292454
 H        -1.053228        -1.086727         2.673744
 H        -1.077101         1.739428         2.201062
 H        -3.616263         1.562458         1.461401
 H        -2.556089         1.378840        -1.228679
 H        -1.626343         2.514661        -0.389791
 H         0.583554        -0.372591        -0.301956
 H        -2.177560        -0.874680        -0.892679
 H        -1.088880        -1.676849         0.230476
