19
Iteration:  4894charge 0 multiplicity 1
 O        -3.891842        -1.228427         0.962323
 C        -2.670724        -0.632975         1.135817
 C        -1.973617        -0.608997         2.470534
 C        -1.455769         0.775063         1.849694
 C        -2.715701         0.925048         1.078709
 C        -2.036294         1.450815        -0.114654
 C        -0.942215         0.449231         0.377060
 O         0.321368         0.764710        -0.070058
 C        -1.523019        -0.989810         0.251195
 H        -3.743362        -2.205418         0.807513
 H        -2.654171        -0.547419         3.336818
 H        -1.138033        -1.320617         2.585832
 H        -0.967031         1.677875         2.308171
 H        -3.602770         1.293246         1.485526
 H        -2.346521         1.271562        -1.174039
 H        -1.403393         2.362509        -0.089888
 H         0.684880        -0.181624        -0.135786
 H        -1.882093        -1.059111        -0.768710
 H        -0.772153        -1.755345         0.460015
