19
Iteration:  4631charge 0 multiplicity 1
 O        -3.782454        -1.382698         1.162716
 C        -2.685611        -0.604168         1.132698
 C        -1.868854        -0.563133         2.372845
 C        -1.472818         0.820176         1.813378
 C        -2.832007         0.963174         1.005819
 C        -2.013284         1.478202        -0.173434
 C        -0.976275         0.497791         0.409957
 O         0.426490         0.570464         0.171826
 C        -1.646573        -0.910534         0.065875
 H        -4.089329        -1.277452         0.241837
 H        -2.451523        -0.454435         3.299951
 H        -1.143740        -1.323084         2.455310
 H        -1.077926         1.605730         2.407645
 H        -3.828281         1.399730         1.325169
 H        -2.407668         1.412915        -1.185987
 H        -1.518967         2.489202        -0.138515
 H         0.576438         0.237595        -0.731409
 H        -2.092066        -0.867035        -0.986605
 H        -1.074524        -1.886696         0.126884
