19
Iteration:  4009charge 0 multiplicity 1
 O        -3.898898        -1.505398         1.045483
 C        -2.694591        -0.683524         1.124724
 C        -1.856697        -0.576093         2.424511
 C        -1.486522         0.786870         1.873544
 C        -2.825206         0.957322         1.014699
 C        -1.993262         1.557217        -0.065045
 C        -0.879525         0.602276         0.320026
 O         0.488667         0.578784         0.062610
 C        -1.692365        -0.760791        -0.034627
 H        -4.094135        -1.585831         2.013907
 H        -2.614394        -0.420620         3.227463
 H        -1.138065        -1.355926         2.626164
 H        -1.093642         1.474781         2.655641
 H        -3.758811         1.378679         1.420096
 H        -2.303935         1.491077        -1.103305
 H        -1.723532         2.616243         0.100110
 H         0.728933        -0.383728         0.037542
 H        -2.018601        -0.797792        -1.065892
 H        -1.031399        -1.669126         0.131317
