19
Iteration:  4986
 O        -3.875952        -1.517018         1.024982
 C        -2.759817        -0.726098         1.122316
 C        -1.881158        -0.583709         2.440593
 C        -1.431471         0.711708         1.897662
 C        -2.795101         0.947033         1.080829
 C        -1.963166         1.577309        -0.162990
 C        -0.971108         0.639550         0.423909
 O         0.555659         0.548611         0.013334
 C        -1.723294        -0.808044         0.066679
 H        -4.601855        -1.137405         1.502577
 H        -2.457792        -0.476011         3.329776
 H        -1.051619        -1.252074         2.639792
 H        -1.091778         1.576186         2.430372
 H        -3.652211         1.639368         1.431266
 H        -2.183764         1.211983        -1.238511
 H        -1.789835         2.630051         0.157963
 H         0.646675         1.158888        -0.704288
 H        -2.150561        -0.820588        -0.984785
 H        -0.987249        -1.623448         0.070212
