19
Iteration:  1068charge 0 multiplicity 1
 O        -3.833611        -1.507301         1.263697
 C        -2.715228        -0.665672         1.135572
 C        -1.620513        -0.650324         2.220417
 C        -1.445440         0.773723         1.716693
 C        -2.820979         0.991873         1.198301
 C        -2.072162         1.567855        -0.202098
 C        -0.987598         0.560529         0.280045
 O         0.414218         0.544769         0.288823
 C        -1.738562        -0.792241        -0.081388
 H        -4.543850        -1.179685         0.594997
 H        -1.998455        -0.801942         3.262403
 H        -0.802074        -1.315396         1.985446
 H        -0.714945         1.469542         2.374110
 H        -3.695550         1.578373         1.612971
 H        -2.692480         1.118278        -1.091145
 H        -1.904582         2.631081        -0.381088
 H         0.658874         1.472231         0.291385
 H        -2.402309        -0.782260        -0.928247
 H        -1.136685        -1.710086        -0.081599
