19
Iteration:  2756charge 0 multiplicity 1
 O        -3.927110        -1.455527         1.108152
 C        -2.711387        -0.694066         1.126769
 C        -1.817289        -0.555702         2.373189
 C        -1.432827         0.788781         1.803592
 C        -2.830611         0.940940         1.092751
 C        -2.081156         1.563286        -0.120084
 C        -0.911298         0.548266         0.276062
 O         0.447857         0.607462         0.042816
 C        -1.646041        -0.860884         0.012900
 H        -3.691947        -2.272898         1.600123
 H        -2.393249        -0.485424         3.316028
 H        -0.999302        -1.257927         2.556520
 H        -0.842777         1.456530         2.399383
 H        -3.712118         1.364189         1.464468
 H        -2.461801         1.612736        -1.171119
 H        -1.684494         2.511083         0.288761
 H         0.945463         0.971525         0.785928
 H        -2.143715        -0.876940        -0.975739
 H        -0.938947        -1.702907         0.202192
