19
Iteration:  3187charge 0 multiplicity 1
 O        -3.938509        -1.357765         1.000220
 C        -2.672511        -0.658249         1.121930
 C        -1.883516        -0.514731         2.491961
 C        -1.441373         0.822065         1.926171
 C        -2.871986         0.898113         1.045949
 C        -2.023733         1.469016        -0.074284
 C        -0.948631         0.554531         0.333881
 O         0.467284         0.547890        -0.079275
 C        -1.517647        -0.849753         0.165059
 H        -3.627177        -2.254286         1.017046
 H        -2.599930        -0.456098         3.311810
 H        -1.012133        -1.229032         2.648449
 H        -1.058537         1.699300         2.409281
 H        -3.862386         1.154599         1.407459
 H        -2.418026         1.425146        -1.072470
 H        -1.790287         2.483713         0.265225
 H         0.468542         0.902825        -0.980267
 H        -2.092600        -1.216711        -0.781755
 H        -0.906357        -1.680952         0.584536
