19
Iteration:  2790
 O        -3.843516        -1.424949         0.852602
 C        -2.707525        -0.579720         1.167142
 C        -1.966513        -0.524679         2.469766
 C        -1.302508         0.721295         1.871360
 C        -2.719640         1.025229         1.238992
 C        -2.148495         1.403602        -0.095647
 C        -0.935451         0.478653         0.382075
 O         0.324176         0.612090        -0.136887
 C        -1.557772        -0.847741         0.183664
 H        -3.423942        -2.278966         0.844564
 H        -2.554304        -0.134070         3.326655
 H        -1.288246        -1.348364         2.710536
 H        -0.700906         1.355032         2.459835
 H        -3.515736         1.479742         1.721144
 H        -2.697530         1.288765        -1.079617
 H        -1.901562         2.503301        -0.090412
 H         0.754846         1.442113         0.049235
 H        -1.982373        -1.080193        -0.806590
 H        -1.081507        -1.822957         0.468773
