19
Iteration:  1996
 O        -3.892461        -1.264485         0.931061
 C        -2.665339        -0.654372         1.262194
 C        -2.107172        -0.474437         2.613831
 C        -1.501608         0.793180         2.048493
 C        -2.715743         0.869133         1.031832
 C        -2.036152         1.364679        -0.168141
 C        -0.858947         0.467405         0.309590
 O         0.366170         0.800382        -0.408255
 C        -1.348738        -0.997919         0.361701
 H        -3.941722        -2.247977         0.747213
 H        -2.964542        -0.207176         3.293876
 H        -1.599704        -1.375566         3.100342
 H        -1.167243         1.688507         2.615599
 H        -3.750028         1.314469         1.221068
 H        -2.556553         1.224651        -1.144018
 H        -1.813567         2.393205         0.126756
 H         0.665974        -0.084092        -0.624324
 H        -1.738684        -1.516873        -0.583067
 H        -0.656558        -1.638964         1.027347
