19
Iteration:   650
 O        -4.029946        -1.230327         0.983304
 C        -2.627669        -0.707902         1.253960
 C        -1.818770        -0.600132         2.552957
 C        -1.283757         0.713527         1.856473
 C        -2.719805         0.802505         1.129137
 C        -2.141818         1.234708        -0.251740
 C        -0.917335         0.517219         0.319104
 O         0.295359         0.916633        -0.000053
 C        -1.488204        -0.958761         0.139360
 H        -4.472882        -0.412437         0.768793
 H        -2.459533        -0.483435         3.391620
 H        -1.130989        -1.448848         2.569706
 H        -0.843254         1.566451         2.298429
 H        -3.569963         1.149162         1.790321
 H        -2.393286         0.843428        -1.185586
 H        -2.052269         2.341521        -0.328872
 H         0.470228         0.834523        -0.972942
 H        -1.837686        -1.140249        -0.850465
 H        -0.742900        -1.720116         0.475312
