19
Iteration:  3933charge 0 multiplicity 1
 O        -3.880390        -1.253707         0.852805
 C        -2.674697        -0.643139         1.142702
 C        -1.992297        -0.624997         2.518978
 C        -1.403771         0.702345         1.963124
 C        -2.715477         0.933040         1.130553
 C        -2.000600         1.350076        -0.150661
 C        -0.951055         0.421543         0.357738
 O         0.302396         0.827938        -0.138015
 C        -1.512684        -0.969303         0.173860
 H        -4.403595        -1.149196         1.683628
 H        -2.675683        -0.181953         3.291573
 H        -1.291701        -1.346830         2.965480
 H        -0.867814         1.535239         2.518215
 H        -3.621160         1.393777         1.589483
 H        -2.444926         1.154600        -1.148713
 H        -1.729038         2.453303        -0.059594
 H         1.077558         0.278874         0.165102
 H        -1.748966        -1.041618        -0.884519
 H        -0.795416        -1.793879         0.464034
