19
Iteration:   659charge 0 multiplicity 1
 O        -3.950176        -1.256820         1.048235
 C        -2.643081        -0.686800         1.173818
 C        -1.838217        -0.617595         2.494454
 C        -1.357471         0.736187         1.779830
 C        -2.741071         0.833775         1.150164
 C        -2.178889         1.274927        -0.203529
 C        -0.945046         0.493923         0.314052
 O         0.409308         0.897162         0.025013
 C        -1.516238        -1.010375         0.129417
 H        -4.509366        -0.500454         0.840165
 H        -2.381644        -0.328215         3.397245
 H        -1.092224        -1.431274         2.742837
 H        -1.067087         1.582718         2.316740
 H        -3.667246         1.310227         1.693322
 H        -2.724299         1.049618        -1.093493
 H        -1.832621         2.353786        -0.179566
 H         0.583459         0.901665        -0.951653
 H        -1.964313        -1.185881        -0.873904
 H        -0.798998        -1.765232         0.555087
