19
Iteration:  1759charge 0 multiplicity 1
 O        -3.881547        -1.494753         1.370917
 C        -2.768089        -0.645947         1.062515
 C        -1.821055        -0.625669         2.321277
 C        -1.428764         0.803587         1.768607
 C        -2.782440         1.053740         1.104414
 C        -1.975708         1.528807        -0.262630
 C        -0.957825         0.416122         0.308853
 O         0.438895         0.720682         0.176816
 C        -1.681548        -0.932102        -0.099452
 H        -3.863700        -2.169547         0.655752
 H        -2.407294        -0.374981         3.190155
 H        -1.122901        -1.421431         2.628107
 H        -0.646986         1.450657         2.358505
 H        -3.734602         1.464642         1.651316
 H        -2.497597         1.226185        -1.155852
 H        -1.647603         2.619288        -0.246850
 H         0.541295         1.647864         0.362044
 H        -2.025997        -0.848939        -1.123513
 H        -1.279342        -1.874391         0.157684
