19
Iteration:  1646
 O        -4.048145        -1.145092         1.106278
 C        -2.685657        -0.723182         1.148653
 C        -1.957260        -0.559444         2.522358
 C        -1.350387         0.787252         1.920010
 C        -2.762513         0.842674         1.065019
 C        -2.057036         1.240958        -0.237771
 C        -0.896536         0.501016         0.310214
 O         0.395210         0.908264        -0.081837
 C        -1.370657        -1.109492         0.161447
 H        -4.232053        -2.049128         0.959823
 H        -2.668091        -0.320160         3.336881
 H        -1.171818        -1.226203         2.894922
 H        -0.965434         1.532435         2.523261
 H        -3.623845         1.259336         1.481292
 H        -2.448038         0.845769        -1.234493
 H        -1.832696         2.322861        -0.218284
 H         0.066801         1.408111        -0.874250
 H        -1.764031        -1.278722        -0.857470
 H        -0.704087        -1.929639         0.593494
