19
Iteration:  3668
 O        -3.898282        -1.327781         1.008581
 C        -2.694201        -0.632567         1.131773
 C        -1.954549        -0.566949         2.501847
 C        -1.475453         0.723292         1.889124
 C        -2.764773         0.983085         1.068314
 C        -2.068138         1.459064        -0.142286
 C        -0.885188         0.466426         0.284100
 O         0.451486         0.700010         0.037644
 C        -1.565528        -0.915816         0.105040
 H        -3.965611        -1.937049         1.792401
 H        -2.778035        -0.518780         3.261168
 H        -1.126465        -1.257067         2.703098
 H        -0.876172         1.660461         2.271373
 H        -3.745783         1.306982         1.469291
 H        -2.442593         1.260523        -1.167262
 H        -1.748124         2.545489        -0.274475
 H         0.781462         0.006467        -0.572003
 H        -1.978269        -1.012370        -0.902124
 H        -0.829937        -1.680409         0.297785
