19
Iteration:  2586
 O        -3.815201        -1.523115         1.194577
 C        -2.741384        -0.621592         1.087818
 C        -1.785135        -0.541615         2.389277
 C        -1.365020         0.841627         1.790651
 C        -2.805001         1.036167         1.155124
 C        -2.171512         1.470911        -0.208694
 C        -0.904484         0.497995         0.377863
 O         0.443220         0.532837         0.120162
 C        -1.659294        -0.841152        -0.088708
 H        -4.436779        -1.325698         0.525232
 H        -2.540089        -0.563331         3.173682
 H        -1.003810        -1.273794         2.587401
 H        -0.854199         1.627428         2.393317
 H        -3.682743         1.485172         1.727922
 H        -2.517509         1.216292        -1.176687
 H        -2.022214         2.519967        -0.319692
 H         0.762709         1.082958         0.845233
 H        -2.121318        -0.678877        -1.045324
 H        -1.195154        -1.843991        -0.107157
