19
Iteration:  3565charge 0 multiplicity 1
 O        -3.810907        -1.539064         1.177295
 C        -2.670358        -0.653138         1.098975
 C        -1.984434        -0.529146         2.461056
 C        -1.547627         0.867816         1.854721
 C        -2.825832         0.961065         0.924856
 C        -2.009981         1.635169        -0.133044
 C        -0.898645         0.549801         0.364078
 O         0.446724         0.438105        -0.094264
 C        -1.570253        -0.852988         0.161042
 H        -4.420345        -1.246277         0.515655
 H        -2.604421        -0.443058         3.334937
 H        -1.286111        -1.306850         2.736692
 H        -0.999272         1.583946         2.373704
 H        -3.652546         1.380264         1.493607
 H        -2.382365         1.620385        -1.159451
 H        -1.670014         2.604458         0.152238
 H         0.989055         0.927975         0.520398
 H        -2.031379        -1.124189        -0.839772
 H        -0.780196        -1.617077         0.432812
