19
Iteration:  3677charge 0 multiplicity 1
 O        -3.872047        -1.457730         0.993788
 C        -2.748602        -0.602995         1.140745
 C        -1.931028        -0.589247         2.516443
 C        -1.443322         0.777882         1.855116
 C        -2.747386         1.064275         1.078256
 C        -2.027033         1.485188        -0.237886
 C        -0.938362         0.491085         0.336181
 O         0.411552         0.661534         0.056293
 C        -1.622947        -0.859918         0.082017
 H        -4.014654        -2.032145         1.786379
 H        -2.422251        -0.441192         3.477257
 H        -1.110594        -1.248061         2.756782
 H        -0.629206         1.357679         2.480008
 H        -3.700091         1.526099         1.424693
 H        -2.468402         1.108566        -1.148659
 H        -1.635930         2.453562        -0.086629
 H         0.975930        -0.027159        -0.317901
 H        -1.823304        -0.845685        -1.033840
 H        -1.057647        -1.779797         0.278815
