19
Iteration:  1439
 O        -3.714298        -1.644073         1.040167
 C        -2.759651        -0.617093         1.125101
 C        -1.975267        -0.472434         2.548635
 C        -1.437183         0.813236         1.867583
 C        -2.791139         1.053049         1.077861
 C        -1.988963         1.501403        -0.226487
 C        -0.960625         0.545061         0.384139
 O         0.370113         0.623872        -0.191491
 C        -1.587221        -0.858590         0.186747
 H        -4.433891        -1.502657         1.741475
 H        -2.706882        -0.249943         3.389761
 H        -1.208035        -1.199844         2.933809
 H        -1.067363         1.689731         2.323760
 H        -3.547345         1.566154         1.617547
 H        -2.547626         1.311868        -1.171135
 H        -1.725361         2.541736        -0.111315
 H         0.969279        -0.067811         0.087528
 H        -1.845239        -1.047766        -0.861579
 H        -1.126952        -1.777604         0.567716
