19
Iteration:  3080
 O        -3.840446        -1.451802         1.177895
 C        -2.685902        -0.699067         1.137383
 C        -1.765102        -0.580024         2.412137
 C        -1.463360         0.854541         1.798791
 C        -2.880789         0.965262         1.062849
 C        -2.116451         1.523761        -0.193945
 C        -0.958449         0.529643         0.337730
 O         0.483046         0.525850         0.072070
 C        -1.603186        -0.822218         0.011382
 H        -4.463368        -1.260573         0.500570
 H        -2.379949        -0.601659         3.316960
 H        -0.962012        -1.319419         2.529075
 H        -0.967435         1.690110         2.280747
 H        -3.759955         1.310850         1.508019
 H        -2.720645         1.128896        -1.056290
 H        -1.907719         2.649419        -0.286399
 H         0.679859         0.964247         0.901090
 H        -1.907021        -0.817194        -1.020723
 H        -0.960876        -1.680226         0.208399
