19
Iteration:  3010charge 0 multiplicity 1
 O        -3.867258        -1.385491         0.935659
 C        -2.655270        -0.657021         1.102420
 C        -1.926786        -0.546439         2.523673
 C        -1.518269         0.840641         1.964154
 C        -2.775473         0.884375         1.178545
 C        -2.065812         1.497400        -0.057424
 C        -0.877449         0.577521         0.416769
 O         0.364052         0.484689        -0.257606
 C        -1.461115        -0.834731         0.249843
 H        -3.966972        -1.899922         0.158815
 H        -2.651933        -0.320515         3.330750
 H        -1.216546        -1.306237         2.927863
 H        -1.231403         1.781345         2.498712
 H        -3.880111         1.121915         1.495215
 H        -2.473901         1.150977        -1.035804
 H        -1.815328         2.587446         0.036448
 H         0.497692         1.284941        -0.770714
 H        -1.778427        -0.902772        -0.867237
 H        -0.818334        -1.710959         0.513845
