19
Iteration:  4844
 O        -3.818053        -1.499496         1.069054
 C        -2.715553        -0.611842         1.167373
 C        -1.978609        -0.512103         2.515892
 C        -1.395066         0.788816         1.900957
 C        -2.764361         0.970799         1.095863
 C        -1.986284         1.489290        -0.226260
 C        -0.896824         0.456520         0.326369
 O         0.458661         0.672216         0.075748
 C        -1.711231        -0.898450         0.071983
 H        -4.218044        -1.421131         0.203825
 H        -2.628299        -0.271371         3.359633
 H        -1.273432        -1.335179         2.801177
 H        -0.874099         1.678031         2.317383
 H        -3.580972         1.678460         1.332443
 H        -2.390819         1.259952        -1.223389
 H        -1.843095         2.559327        -0.152419
 H         0.532911         0.246276        -0.785443
 H        -2.114814        -0.961675        -0.993703
 H        -1.228450        -1.875565         0.285012
