19
Iteration:  4695
 O        -3.819992        -1.388640         1.088797
 C        -2.727902        -0.555680         1.132713
 C        -1.964356        -0.510131         2.464198
 C        -1.522162         0.817378         1.952997
 C        -2.790174         0.950590         1.084671
 C        -1.970364         1.453010        -0.130456
 C        -0.920177         0.409711         0.328043
 O         0.423521         0.609522        -0.005066
 C        -1.558247        -0.905631         0.065647
 H        -4.133081        -1.622198         0.228787
 H        -2.628868        -0.413837         3.373426
 H        -1.224386        -1.324304         2.546609
 H        -1.117734         1.654516         2.468157
 H        -3.814582         1.360487         1.418080
 H        -2.430500         1.326577        -1.149851
 H        -1.335980         2.407653         0.109870
 H         0.513450         0.561920        -0.936566
 H        -1.838600        -1.153103        -0.998358
 H        -0.955279        -1.721662         0.509967
