19
Iteration:  2332
 O        -3.945949        -1.399427         0.957798
 C        -2.766623        -0.665729         1.226434
 C        -1.964898        -0.528585         2.542322
 C        -1.311449         0.767244         1.811550
 C        -2.680195         0.945780         1.169285
 C        -2.056658         1.356167        -0.261983
 C        -0.871296         0.428614         0.357112
 O         0.324444         0.915155        -0.065734
 C        -1.517374        -1.035248         0.282981
 H        -4.074273        -1.073207         0.025801
 H        -2.608045        -0.086122         3.304840
 H        -1.455745        -1.351955         3.003026
 H        -0.639681         1.515578         2.301297
 H        -3.510741         1.501226         1.687091
 H        -2.545876         0.959439        -1.145758
 H        -1.863422         2.371810        -0.529394
 H         0.692205         0.270940        -0.664247
 H        -1.968891        -1.231000        -0.681999
 H        -0.813801        -1.821608         0.572506
