19
Iteration:  3124charge 0 multiplicity 1
 O        -3.915010        -1.480805         0.995219
 C        -2.683011        -0.631894         1.107867
 C        -1.914849        -0.546629         2.507415
 C        -1.425830         0.737777         1.823584
 C        -2.774373         0.998996         1.122825
 C        -2.104125         1.460572        -0.140715
 C        -0.906031         0.492515         0.364228
 O         0.450740         0.673283        -0.055467
 C        -1.550702        -0.957280         0.139607
 H        -4.502289        -1.088748         1.628192
 H        -2.626684        -0.493175         3.334239
 H        -1.186817        -1.318983         2.737359
 H        -0.954604         1.627609         2.181637
 H        -3.489731         1.541183         1.639353
 H        -2.441578         1.350325        -1.207773
 H        -1.600587         2.490914        -0.046407
 H         0.569088         1.521483        -0.459120
 H        -1.916033        -1.150785        -0.853290
 H        -0.865726        -1.699462         0.579682
