19
Iteration:  4815charge 0 multiplicity 1
 O        -3.818013        -1.526347         1.164580
 C        -2.724099        -0.678819         1.096125
 C        -1.877946        -0.493938         2.354267
 C        -1.443131         0.855753         1.773950
 C        -2.793354         1.029583         1.071794
 C        -2.029964         1.565655        -0.182190
 C        -0.953678         0.503456         0.322620
 O         0.414747         0.484447         0.246820
 C        -1.611072        -0.895205         0.037634
 H        -4.500807        -1.092601         0.584681
 H        -2.450495        -0.484334         3.347098
 H        -1.126638        -1.284963         2.561525
 H        -0.904901         1.706151         2.088115
 H        -3.638609         1.758123         1.395337
 H        -2.440372         1.439868        -1.182618
 H        -1.789575         2.665000         0.000855
 H         0.524007         0.666182        -0.747438
 H        -1.826417        -1.137811        -0.990094
 H        -0.943829        -1.696111         0.359239
