19
Iteration:  2123
 O        -3.852351        -1.472358         0.902103
 C        -2.772890        -0.662628         1.184061
 C        -1.879662        -0.448368         2.564440
 C        -1.339268         0.888239         1.816518
 C        -2.743701         0.964688         1.104036
 C        -2.012868         1.348943        -0.242276
 C        -0.962863         0.486255         0.374029
 O         0.320299         0.688588        -0.096198
 C        -1.617022        -0.923855         0.207310
 H        -4.050691        -1.988586         1.716383
 H        -2.500452        -0.140871         3.429730
 H        -1.249821        -1.319096         2.713384
 H        -0.855448         1.715498         2.466257
 H        -3.600982         1.606745         1.541978
 H        -2.341691         0.979907        -1.247075
 H        -1.804918         2.407142        -0.378478
 H         0.878659         0.703380         0.720184
 H        -1.920317        -1.108867        -0.813263
 H        -0.858559        -1.634177         0.516645
