19
Iteration:   566charge 0 multiplicity 1
 O        -3.711382        -1.651820         1.140000
 C        -2.721824        -0.640445         1.144721
 C        -1.871701        -0.537023         2.322938
 C        -1.493231         0.854969         1.839874
 C        -2.800845         1.036874         1.082991
 C        -2.016881         1.562367        -0.096415
 C        -0.946854         0.572945         0.306479
 O         0.469935         0.539731         0.090117
 C        -1.802597        -0.750124        -0.007832
 H        -3.523193        -2.043443         2.049948
 H        -2.457910        -0.659536         3.264344
 H        -1.076302        -1.298094         2.368307
 H        -0.999320         1.684823         2.410775
 H        -3.709482         1.395167         1.383950
 H        -2.497517         1.679031        -1.144376
 H        -1.641690         2.503612         0.279890
 H         0.550670         0.122171        -0.774946
 H        -2.421575        -0.539251        -0.948673
 H        -1.260196        -1.729913        -0.007656
