19
Iteration:  1133
 O        -3.796407        -1.455866         0.851204
 C        -2.704960        -0.593080         1.200987
 C        -2.072452        -0.644559         2.629664
 C        -1.368830         0.609630         2.034763
 C        -2.683363         0.962117         1.228341
 C        -1.970850         1.535457         0.025210
 C        -0.911522         0.519647         0.267532
 O         0.224995         0.692807        -0.493017
 C        -1.519291        -0.859538         0.310778
 H        -3.733664        -1.570048        -0.084729
 H        -2.701652        -0.198923         3.401846
 H        -1.488130        -1.510376         2.891432
 H        -0.781585         1.453690         2.635758
 H        -3.572932         1.481015         1.679579
 H        -2.516537         1.355014        -0.940565
 H        -1.746570         2.559408         0.225404
 H         0.556877         1.599294        -0.319837
 H        -1.883195        -1.121989        -0.688004
 H        -0.967983        -1.681929         0.759585
