19
Iteration:  3373charge 0 multiplicity 1
 O        -4.006438        -1.297112         1.317205
 C        -2.707722        -0.794562         1.076892
 C        -1.881978        -0.646071         2.358927
 C        -1.432542         0.817773         1.801578
 C        -2.822464         0.910859         1.029339
 C        -2.024152         1.435545        -0.231031
 C        -0.898517         0.549724         0.355070
 O         0.412652         0.699714         0.088491
 C        -1.469412        -0.869633        -0.025535
 H        -4.467266        -1.482436         0.488494
 H        -2.506898        -0.656968         3.289863
 H        -0.974130        -1.321680         2.548999
 H        -1.246807         1.591690         2.530108
 H        -3.665741         1.371235         1.429540
 H        -2.289800         1.216845        -1.255169
 H        -1.773540         2.502096        -0.066498
 H         1.099458         0.586037         0.790240
 H        -1.845235        -0.866664        -1.089375
 H        -0.744485        -1.702703         0.139433
