19
Iteration:  3241
 O        -3.870601        -1.382947         1.172244
 C        -2.762474        -0.599517         1.133444
 C        -1.873408        -0.543804         2.446391
 C        -1.360613         0.680562         1.788619
 C        -2.748367         0.975979         1.019947
 C        -2.039302         1.361252        -0.209495
 C        -0.936089         0.416395         0.388480
 O         0.486959         0.887110         0.169761
 C        -1.754873        -0.933471         0.002925
 H        -3.678165        -2.069212         0.513689
 H        -2.400912        -0.381334         3.372855
 H        -1.411472        -1.557930         2.580224
 H        -0.973102         1.549093         2.253301
 H        -3.482166         1.556317         1.570003
 H        -2.475279         1.175552        -1.166329
 H        -1.652558         2.347839        -0.208939
 H         0.812433         0.350664        -0.599292
 H        -2.223622        -0.811763        -1.066609
 H        -1.425262        -1.982901         0.124086
