19
Iteration:  1237charge 0 multiplicity 1
 O        -3.879636        -1.496161         1.279782
 C        -2.729657        -0.658174         1.064079
 C        -1.857885        -0.707358         2.289880
 C        -1.450309         0.657588         1.740510
 C        -2.755958         1.035627         1.069131
 C        -1.969702         1.568744        -0.129228
 C        -0.958567         0.518561         0.317469
 O         0.409102         0.772753         0.099844
 C        -1.699696        -0.805299        -0.067468
 H        -3.620565        -1.793998         2.203159
 H        -2.331660        -0.654417         3.317346
 H        -1.054344        -1.494259         2.285453
 H        -0.911017         1.325107         2.300068
 H        -3.586895         1.551839         1.479162
 H        -2.551753         1.459200        -1.079433
 H        -1.619205         2.656518        -0.036512
 H         0.885922         0.217508         0.721721
 H        -2.305851        -0.734584        -1.004733
 H        -1.071199        -1.750627        -0.003168
