19
Iteration:  4741
 O        -3.915818        -1.421127         0.961034
 C        -2.752929        -0.546585         1.148027
 C        -2.010280        -0.572670         2.523106
 C        -1.348546         0.728441         1.781293
 C        -2.782167         1.044285         1.163096
 C        -2.083530         1.411338        -0.130566
 C        -0.885117         0.473394         0.243433
 O         0.456118         0.718220        -0.001105
 C        -1.524568        -0.996506         0.276879
 H        -4.071858        -1.477185        -0.003606
 H        -2.546825        -0.175577         3.402996
 H        -1.462388        -1.446379         2.786959
 H        -0.807624         1.469435         2.364852
 H        -3.375626         1.658394         1.822028
 H        -2.537351         1.172322        -1.124501
 H        -1.914316         2.534464         0.058571
 H         0.663170         0.587531        -0.935271
 H        -1.843251        -1.225240        -0.772804
 H        -0.855219        -1.830710         0.655608
