19
Iteration:  1277charge 0 multiplicity 1
 O        -3.760175        -1.476019         0.807466
 C        -2.692758        -0.670661         1.232130
 C        -1.876155        -0.547410         2.567099
 C        -1.395392         0.730206         1.928377
 C        -2.766156         0.963890         1.175190
 C        -2.122641         1.549072        -0.000251
 C        -0.952490         0.553088         0.325890
 O         0.325412         0.594080        -0.210392
 C        -1.568592        -0.803780         0.165548
 H        -4.596184        -1.084216         1.052291
 H        -2.318999        -0.271393         3.486555
 H        -1.135397        -1.308726         2.732347
 H        -0.947800         1.609184         2.442370
 H        -3.537313         1.380418         1.841706
 H        -2.576667         1.268027        -0.927115
 H        -1.855473         2.570957         0.011946
 H         0.440118        -0.252872        -0.706869
 H        -1.926319        -0.992697        -0.824147
 H        -0.847399        -1.582763         0.273530
