19
Iteration:  4711
 O        -3.880737        -1.336161         0.953864
 C        -2.623521        -0.707289         1.133332
 C        -1.950517        -0.532876         2.531257
 C        -1.471704         0.850368         1.888377
 C        -2.778618         0.988683         1.098263
 C        -2.034807         1.436434        -0.117352
 C        -0.897950         0.522255         0.431226
 O         0.399350         0.574210        -0.064504
 C        -1.555654        -0.974129         0.206475
 H        -3.890583        -1.361716        -0.010528
 H        -2.729737        -0.394384         3.255433
 H        -1.126645        -1.168205         2.897748
 H        -0.930772         1.642359         2.491171
 H        -3.631397         1.446291         1.511083
 H        -2.378988         1.167795        -1.121919
 H        -1.928043         2.484166        -0.045731
 H         0.228860         0.561503        -1.014563
 H        -1.971282        -0.781592        -0.807097
 H        -0.934587        -1.889391         0.237661
