19
Iteration:  4026
 O        -3.938053        -1.481225         1.081684
 C        -2.807740        -0.649449         1.096417
 C        -1.940386        -0.615085         2.425525
 C        -1.437105         0.739070         1.839208
 C        -2.736376         0.980230         1.159824
 C        -2.038302         1.575393        -0.210741
 C        -0.912133         0.479306         0.319550
 O         0.597986         0.709382         0.120033
 C        -1.663475        -0.839245        -0.060088
 H        -3.945323        -1.958635         1.935959
 H        -2.566652        -0.544165         3.331567
 H        -1.105079        -1.375935         2.429519
 H        -0.873443         1.638294         2.130344
 H        -3.583454         1.491601         1.619057
 H        -2.575431         1.505943        -1.208886
 H        -1.841557         2.651944        -0.055126
 H         1.045346        -0.084961         0.474592
 H        -2.317336        -0.723963        -0.941133
 H        -1.119214        -1.770268        -0.108709
