19
Iteration:  1595charge 0 multiplicity 1
 O        -3.760750        -1.679287         1.149721
 C        -2.760719        -0.615981         1.122945
 C        -1.817733        -0.412131         2.384416
 C        -1.461396         0.885708         1.747832
 C        -2.794697         1.097802         1.004294
 C        -2.076144         1.527727        -0.213232
 C        -0.985979         0.536591         0.349581
 O         0.446430         0.509051         0.165491
 C        -1.722208        -0.778518         0.085770
 H        -3.360587        -2.411926         1.639430
 H        -2.442597        -0.361580         3.276537
 H        -1.004150        -1.120429         2.651465
 H        -0.959880         1.769844         2.282113
 H        -3.679089         1.568804         1.540627
 H        -2.435552         1.218199        -1.188643
 H        -1.734827         2.574110        -0.376477
 H         0.482419        -0.332090        -0.370630
 H        -2.063404        -0.945331        -0.926562
 H        -1.099871        -1.609769         0.327433
