19
Iteration:  3758
 O        -3.947244        -1.401089         0.958538
 C        -2.778508        -0.593109         1.141850
 C        -1.893882        -0.592686         2.502164
 C        -1.319372         0.743274         1.872300
 C        -2.821468         0.963742         1.059317
 C        -2.045781         1.359136        -0.102176
 C        -0.916475         0.461057         0.369136
 O         0.439482         0.783359        -0.127961
 C        -1.549504        -0.951733         0.182563
 H        -4.732297        -0.862923         0.965789
 H        -2.519964        -0.397810         3.390730
 H        -1.153206        -1.378844         2.702817
 H        -1.027466         1.470686         2.561546
 H        -3.571670         1.533285         1.593953
 H        -2.380021         1.228520        -1.133255
 H        -1.662322         2.408094        -0.092622
 H         1.184269         0.575201         0.414233
 H        -1.912717        -1.053562        -0.797026
 H        -0.953513        -1.796184         0.464968
