19
Iteration:  1095
 O        -3.879620        -1.442473         1.185135
 C        -2.706000        -0.672791         1.092260
 C        -1.824813        -0.642569         2.380750
 C        -1.391233         0.714611         1.835371
 C        -2.790048         0.863987         1.124071
 C        -2.072688         1.526558        -0.058044
 C        -0.917091         0.541376         0.356513
 O         0.434993         0.662227        -0.061267
 C        -1.627027        -0.808535         0.035173
 H        -4.600162        -1.051422         0.606392
 H        -2.481957        -0.597496         3.261143
 H        -1.102443        -1.462474         2.619820
 H        -0.950182         1.421762         2.434557
 H        -3.663024         1.338576         1.541898
 H        -2.579088         1.477309        -1.002499
 H        -1.851654         2.616177         0.069072
 H         0.553032         1.601572        -0.200732
 H        -2.045908        -0.933376        -0.988425
 H        -0.963105        -1.688797         0.161380
