19
Iteration:  2948
 O        -3.913003        -1.432583         1.216606
 C        -2.763954        -0.644295         1.093455
 C        -1.974653        -0.608487         2.485823
 C        -1.389145         0.754000         1.837971
 C        -2.734822         0.932766         1.040325
 C        -1.960158         1.359072        -0.143511
 C        -0.882525         0.451428         0.331689
 O         0.420548         0.812869        -0.069193
 C        -1.588210        -0.878211         0.066626
 H        -4.275139        -1.666938         0.381327
 H        -2.691504        -0.348218         3.272041
 H        -1.409091        -1.521180         2.802615
 H        -0.871313         1.591273         2.394459
 H        -3.708449         1.459867         1.283826
 H        -2.300623         1.264267        -1.198401
 H        -1.755671         2.464013         0.060797
 H         0.800540         1.417621         0.563681
 H        -2.071821        -0.831098        -0.898697
 H        -1.064460        -1.792718         0.107294
