19
Iteration:   478charge 0 multiplicity 1
 O        -3.932897        -1.354299         0.886666
 C        -2.692053        -0.636862         1.179319
 C        -1.956708        -0.566752         2.540318
 C        -1.254907         0.697905         1.982660
 C        -2.657857         0.969081         1.235693
 C        -2.097861         1.422004        -0.065889
 C        -0.952695         0.483930         0.336649
 O         0.278177         0.794939        -0.270280
 C        -1.493484        -0.980797         0.243176
 H        -3.567583        -2.033624         0.257640
 H        -2.728239        -0.316749         3.284488
 H        -1.398712        -1.457766         2.894106
 H        -0.677315         1.248637         2.688374
 H        -3.479522         1.439879         1.586350
 H        -2.650397         1.113742        -1.004120
 H        -1.860244         2.501568        -0.052647
 H        -0.093385         1.390386        -0.917712
 H        -1.723664        -1.210632        -0.878648
 H        -0.831815        -1.861533         0.527768
