19
Iteration:   222charge 0 multiplicity 1
 O        -3.714706        -1.624228         1.379721
 C        -2.699062        -0.731693         1.110730
 C        -1.776054        -0.603272         2.295498
 C        -1.519437         0.858201         1.737575
 C        -2.770641         1.017726         1.051443
 C        -2.021501         1.698284        -0.226773
 C        -0.986372         0.534533         0.304550
 O         0.409769         0.483498         0.216672
 C        -1.803955        -0.764374        -0.090553
 H        -4.196317        -1.928357         0.594975
 H        -2.407899        -0.482272         3.176759
 H        -1.017830        -1.363152         2.324157
 H        -0.837454         1.584093         2.290032
 H        -3.706029         1.529413         1.582407
 H        -2.293906         1.538776        -1.194901
 H        -1.540817         2.710595         0.003034
 H         0.738934         1.376850         0.288821
 H        -2.463818        -0.635810        -0.935440
 H        -1.220065        -1.686581        -0.173311
