19
Iteration:  4591charge 0 multiplicity 1
 O        -3.902937        -1.405942         1.011330
 C        -2.739547        -0.573866         1.184063
 C        -2.061041        -0.494835         2.492050
 C        -1.363752         0.710618         1.831424
 C        -2.793072         0.955737         1.130211
 C        -2.050784         1.456314        -0.144103
 C        -0.864893         0.467570         0.307480
 O         0.506833         0.682393        -0.052865
 C        -1.550214        -0.932607         0.221153
 H        -3.952909        -1.624541         0.062878
 H        -2.696910        -0.239057         3.347710
 H        -1.433371        -1.376053         2.914871
 H        -0.894308         1.496517         2.449822
 H        -3.611028         1.296618         1.701384
 H        -2.589314         1.307743        -1.121888
 H        -1.826153         2.481143        -0.002343
 H         0.587802         0.516909        -1.017470
 H        -1.787727        -0.955363        -0.808062
 H        -1.125866        -1.872051         0.548475
