19
Iteration:   675
 O        -3.864321        -1.473127         1.141499
 C        -2.706919        -0.642807         1.135461
 C        -1.842381        -0.513283         2.425677
 C        -1.419751         0.736082         1.825614
 C        -2.809645         0.961777         1.094676
 C        -2.161557         1.486674        -0.136536
 C        -0.905450         0.422134         0.261308
 O         0.466729         0.781399         0.052158
 C        -1.563773        -0.980578         0.103676
 H        -4.635760        -0.969122         0.986330
 H        -2.635174        -0.384188         3.175220
 H        -1.106280        -1.283504         2.578067
 H        -0.636449         1.483353         2.206408
 H        -3.647182         1.348955         1.578301
 H        -2.629960         1.257111        -1.139687
 H        -1.961866         2.529860        -0.066098
 H         0.623530         0.820255        -0.906405
 H        -1.855862        -1.088400        -0.932348
 H        -0.985935        -1.770318         0.584904
