19
Iteration:  2475
 O        -3.889017        -1.277219         0.892373
 C        -2.644712        -0.693968         1.225021
 C        -1.901390        -0.544943         2.641333
 C        -1.478150         0.838354         1.975693
 C        -2.803177         0.917252         1.167449
 C        -2.114606         1.461174        -0.129636
 C        -0.962033         0.415042         0.285125
 O         0.374682         0.605916        -0.231733
 C        -1.429379        -0.990301         0.212618
 H        -4.037871        -1.076689        -0.091242
 H        -2.606342        -0.537319         3.485555
 H        -1.143237        -1.270675         2.847165
 H        -1.010428         1.675770         2.391868
 H        -3.760411         1.254338         1.450711
 H        -2.668932         1.340155        -1.048545
 H        -1.666818         2.427895        -0.086585
 H         0.748595         1.498295        -0.203381
 H        -1.756481        -1.265149        -0.777140
 H        -0.621858        -1.623857         0.600365
