19
Iteration:  2744charge 0 multiplicity 1
 O        -3.900116        -1.383255         1.215086
 C        -2.701949        -0.665383         1.010885
 C        -1.796567        -0.563955         2.365436
 C        -1.497105         0.784401         1.805172
 C        -2.840913         0.826569         0.986550
 C        -1.985366         1.509111        -0.048631
 C        -0.929802         0.525821         0.474280
 O         0.420732         0.620925        -0.005700
 C        -1.633734        -0.824884        -0.041870
 H        -3.738150        -2.134694         1.753535
 H        -2.513727        -0.567114         3.184324
 H        -0.974222        -1.268627         2.455557
 H        -1.244225         1.758687         2.261584
 H        -3.649069         1.243535         1.561294
 H        -2.341715         1.400512        -1.096711
 H        -1.888269         2.589202         0.097324
 H         0.969464         0.918806         0.730663
 H        -1.931805        -0.529874        -1.058962
 H        -1.147362        -1.795721        -0.190202
