19
Iteration:  3406charge 0 multiplicity 1
 O        -3.782792        -1.509941         1.096581
 C        -2.717361        -0.659431         1.205065
 C        -1.914501        -0.529165         2.462156
 C        -1.432190         0.790562         1.758162
 C        -2.830255         1.090722         1.101977
 C        -2.028474         1.526676        -0.225347
 C        -0.935206         0.441082         0.316617
 O         0.437731         0.632218         0.038505
 C        -1.660866        -0.873080         0.096931
 H        -4.110187        -1.683501         0.234032
 H        -2.490660        -0.516972         3.432265
 H        -1.223806        -1.433537         2.556706
 H        -1.062168         1.632200         2.363163
 H        -3.578368         1.707616         1.524010
 H        -2.383605         1.444830        -1.243579
 H        -1.707503         2.593688        -0.092423
 H         0.886722         0.222430         0.769896
 H        -2.205779        -1.006341        -0.882166
 H        -1.126090        -1.845832         0.264761
