19
Iteration:  3841
 O        -3.768565        -1.611536         0.988670
 C        -2.803670        -0.620703         1.098365
 C        -1.946841        -0.538338         2.442745
 C        -1.444939         0.829719         1.841186
 C        -2.807394         1.062638         1.018518
 C        -1.911752         1.605776        -0.099746
 C        -0.936205         0.567505         0.429443
 O         0.405567         0.529521        -0.092629
 C        -1.672421        -0.814373         0.207506
 H        -4.373392        -1.761856         1.756953
 H        -2.475531        -0.330345         3.414355
 H        -1.366459        -1.491082         2.512478
 H        -0.844572         1.495902         2.563562
 H        -3.728872         1.575735         1.303479
 H        -2.090215         1.442659        -1.174037
 H        -1.718724         2.647092         0.210377
 H         0.771303        -0.383718        -0.060214
 H        -1.941015        -0.865936        -0.903515
 H        -0.897178        -1.603779         0.446888
