19
Iteration:  3749
 O        -3.898672        -1.410814         1.004527
 C        -2.728558        -0.650231         1.125330
 C        -1.920587        -0.515992         2.451508
 C        -1.410454         0.727674         1.920627
 C        -2.785058         0.885808         1.098992
 C        -2.022404         1.451296        -0.154992
 C        -0.856731         0.488372         0.423995
 O         0.401390         0.698543        -0.139369
 C        -1.593975        -0.901131         0.144870
 H        -4.619232        -0.779151         1.016721
 H        -2.580943        -0.297879         3.316650
 H        -1.321662        -1.463523         2.615272
 H        -1.031636         1.625255         2.298443
 H        -3.634585         1.342608         1.627244
 H        -2.391637         1.327723        -1.228463
 H        -1.728534         2.502977         0.122310
 H         1.134412         0.585505         0.450400
 H        -1.789881        -0.955388        -0.933564
 H        -1.017635        -1.806297         0.413840
