19
Iteration:  2712charge 0 multiplicity 1
 O        -3.958465        -1.343820         1.168955
 C        -2.676152        -0.701178         1.095602
 C        -1.871728        -0.650002         2.406061
 C        -1.494987         0.699853         1.904861
 C        -2.789980         0.954953         1.020566
 C        -2.055490         1.602887        -0.148667
 C        -0.932925         0.512819         0.266308
 O         0.463959         0.672403        -0.035038
 C        -1.533098        -0.903517         0.077245
 H        -3.765310        -2.258669         1.490038
 H        -2.533828        -0.723924         3.293667
 H        -1.095315        -1.412091         2.526668
 H        -0.917571         1.475497         2.347901
 H        -3.670968         1.329351         1.463788
 H        -2.623030         1.374482        -1.075882
 H        -1.831841         2.654127         0.109583
 H         0.735189         1.326939         0.615442
 H        -2.000041        -0.888612        -0.928280
 H        -0.886665        -1.801474         0.217460
