19
Iteration:  3513charge 0 multiplicity 1
 O        -3.870383        -1.429796         1.079676
 C        -2.741308        -0.604603         1.191385
 C        -1.912007        -0.536502         2.526582
 C        -1.344250         0.715035         1.800033
 C        -2.747094         0.966501         1.056966
 C        -2.089494         1.431445        -0.319591
 C        -0.930247         0.475961         0.313918
 O         0.478348         0.783544         0.050929
 C        -1.628228        -0.980765         0.093879
 H        -4.530919        -1.134824         0.479577
 H        -2.633388        -0.264179         3.331486
 H        -1.271967        -1.271658         3.019495
 H        -0.798195         1.477770         2.415916
 H        -3.533444         1.567799         1.511697
 H        -2.593983         0.942959        -1.199400
 H        -1.876432         2.523668        -0.305419
 H         0.676017         0.358760         0.888885
 H        -2.151701        -1.101499        -0.832453
 H        -1.045894        -1.841789         0.312285
