19
Iteration:  2412
 O        -3.690579        -1.653619         1.311665
 C        -2.794339        -0.653693         1.066316
 C        -2.022002        -0.531678         2.363328
 C        -1.386760         0.744142         1.746934
 C        -2.729555         1.143033         1.029907
 C        -1.958826         1.622720        -0.172920
 C        -0.902365         0.506058         0.299060
 O         0.464475         0.627643         0.086269
 C        -1.841946        -0.959455         0.032766
 H        -4.234540        -1.910859         0.492816
 H        -2.831925        -0.244845         3.034500
 H        -1.460585        -1.353983         2.763152
 H        -0.968955         1.540747         2.301238
 H        -3.478422         1.703957         1.571701
 H        -2.490183         1.592894        -1.132215
 H        -1.347173         2.513818         0.078850
 H         0.693615         1.344024         0.682976
 H        -2.165316        -0.878524        -0.977065
 H        -1.212737        -1.837486         0.111105
