19
Iteration:  4569charge 0 multiplicity 1
 O        -3.852504        -1.395747         1.010695
 C        -2.650644        -0.649342         1.183937
 C        -2.061381        -0.519358         2.540788
 C        -1.370809         0.714809         1.913657
 C        -2.646349         1.092918         1.100067
 C        -1.918114         1.391310        -0.160791
 C        -1.005963         0.441229         0.362193
 O         0.329945         0.758304        -0.015052
 C        -1.614188        -0.991660         0.075916
 H        -3.964372        -1.562362         0.053054
 H        -2.851554        -0.217473         3.262899
 H        -1.551925        -1.398481         3.130017
 H        -0.784886         1.471528         2.445465
 H        -3.513072         1.603191         1.419150
 H        -2.517085         1.096149        -1.066456
 H        -1.433172         2.334879        -0.212157
 H         0.369326         0.617570        -0.979701
 H        -1.983390        -1.202124        -0.910173
 H        -0.949581        -1.778628         0.420714
