19
Iteration:   667
 O        -3.880557        -1.317734         1.096380
 C        -2.711767        -0.688597         1.120423
 C        -1.817858        -0.594018         2.441293
 C        -1.426144         0.746613         1.784371
 C        -2.764615         0.888120         1.124641
 C        -2.184182         1.370443        -0.143205
 C        -0.941917         0.420662         0.273345
 O         0.475389         0.866256         0.041544
 C        -1.537434        -0.987534         0.159561
 H        -4.577915        -0.710495         0.910784
 H        -2.447587        -0.278146         3.335336
 H        -1.117835        -1.355034         2.849461
 H        -0.878460         1.560909         2.329583
 H        -3.645510         1.404542         1.571527
 H        -2.847560         1.139451        -1.058453
 H        -1.918707         2.452944        -0.130427
 H         0.552102         0.871859        -0.940694
 H        -1.835999        -1.329170        -0.896154
 H        -0.937770        -1.881122         0.376006
