19
Iteration:  4638
 O        -3.761781        -1.387173         1.179144
 C        -2.668589        -0.642536         1.121741
 C        -1.878763        -0.543763         2.355821
 C        -1.476138         0.805461         1.813306
 C        -2.852897         1.003442         1.001271
 C        -2.037056         1.459277        -0.153568
 C        -0.915307         0.432735         0.358424
 O         0.451593         0.605416         0.216700
 C        -1.706938        -0.885714         0.025605
 H        -4.301409        -1.426960         0.335850
 H        -2.491443        -0.346706         3.261435
 H        -1.216043        -1.428259         2.616371
 H        -0.898071         1.639729         2.293553
 H        -3.763545         1.562287         1.325073
 H        -2.305005         1.321494        -1.260385
 H        -1.652280         2.549545         0.033719
 H         0.506739         0.188711        -0.710006
 H        -2.205577        -0.862461        -0.948709
 H        -1.027729        -1.717813         0.140007
