19
Iteration:   991charge 0 multiplicity 1
 O        -3.802626        -1.459832         0.977684
 C        -2.718016        -0.599413         1.200284
 C        -2.038736        -0.558942         2.592980
 C        -1.409927         0.688582         1.920137
 C        -2.706233         1.055556         1.221561
 C        -2.006169         1.378529        -0.045925
 C        -0.946443         0.435078         0.337387
 O         0.306500         0.751646        -0.417147
 C        -1.517929        -0.909780         0.212974
 H        -4.032190        -1.352558         0.055892
 H        -2.665723        -0.204722         3.424220
 H        -1.395857        -1.407788         2.809452
 H        -0.781272         1.460129         2.576710
 H        -3.617105         1.469952         1.658076
 H        -2.492881         1.063412        -1.040154
 H        -1.471085         2.305782        -0.128182
 H         0.542360         1.517144         0.113149
 H        -1.861222        -1.211271        -0.764835
 H        -0.918645        -1.668532         0.717085
