19
Iteration:   705
 O        -3.648171        -1.745064         1.176844
 C        -2.717861        -0.678276         1.201263
 C        -1.881107        -0.473246         2.439408
 C        -1.515506         0.790087         1.812545
 C        -2.806941         1.038146         1.014678
 C        -1.942778         1.642839        -0.175720
 C        -0.946168         0.552825         0.363852
 O         0.388612         0.486171         0.023736
 C        -1.755904        -0.686285         0.057010
 H        -4.611217        -1.452916         1.018411
 H        -2.645919        -0.380755         3.238488
 H        -1.182432        -1.233199         2.826849
 H        -0.971416         1.607406         2.314728
 H        -3.630881         1.649192         1.453105
 H        -2.220854         1.480098        -1.180777
 H        -1.796872         2.708030         0.026910
 H         0.546612         0.196337        -0.912040
 H        -2.192858        -0.573469        -0.914315
 H        -1.087848        -1.586921         0.045801
