19
Iteration:  1107
 O        -3.889428        -1.444415         1.117453
 C        -2.637997        -0.730304         1.103024
 C        -1.990300        -0.596634         2.440613
 C        -1.428357         0.716679         1.943609
 C        -2.764999         0.934903         1.234193
 C        -2.007529         1.535725         0.009391
 C        -0.925296         0.532049         0.304574
 O         0.361804         0.688519        -0.241771
 C        -1.498425        -0.916437         0.035232
 H        -4.360247        -1.041154         0.414965
 H        -2.741224        -0.247520         3.172847
 H        -1.285241        -1.397456         2.744378
 H        -0.931019         1.480069         2.461806
 H        -3.643397         1.199299         1.761841
 H        -2.330416         1.341842        -0.988851
 H        -1.781661         2.584799         0.282530
 H         0.605535         1.639285        -0.304704
 H        -1.923449        -0.841275        -0.989525
 H        -0.881514        -1.826624         0.257895
