19
Iteration:  2581
 O        -3.818798        -1.498886         1.214869
 C        -2.721120        -0.639986         1.079541
 C        -1.777037        -0.578445         2.366236
 C        -1.419262         0.886046         1.744529
 C        -2.793893         1.017570         1.165298
 C        -2.166880         1.489343        -0.212353
 C        -0.918462         0.531443         0.340289
 O         0.443737         0.481552         0.152706
 C        -1.652159        -0.807698        -0.035071
 H        -4.490134        -1.363808         0.454269
 H        -2.432312        -0.669822         3.284599
 H        -0.928296        -1.322720         2.364026
 H        -1.092696         1.711773         2.371978
 H        -3.535088         1.270462         1.892676
 H        -2.538088         1.157312        -1.254924
 H        -1.978162         2.607728        -0.352342
 H         0.819841         1.062159         0.843397
 H        -2.126917        -0.699793        -1.058521
 H        -1.057987        -1.744200        -0.126153
