19
Iteration:  2214charge 0 multiplicity 1
 O        -3.741825        -1.577899         1.244520
 C        -2.743402        -0.655552         1.169325
 C        -2.029694        -0.490060         2.448350
 C        -1.461654         0.824855         1.813149
 C        -2.780485         1.031688         0.984683
 C        -1.968299         1.499790        -0.237892
 C        -0.970421         0.467299         0.314232
 O         0.434065         0.678897        -0.023540
 C        -1.658785        -0.849237         0.114720
 H        -3.925293        -2.124057         0.501919
 H        -2.684745        -0.235601         3.316935
 H        -1.245969        -1.185540         2.798453
 H        -1.025036         1.614115         2.399417
 H        -3.552789         1.587985         1.508799
 H        -2.478996         1.475053        -1.236570
 H        -1.509907         2.517469        -0.122266
 H         0.962880        -0.107429         0.243822
 H        -2.070505        -0.919363        -0.897508
 H        -0.944395        -1.663824         0.349045
