19
Iteration:   358charge 0 multiplicity 1
 O        -3.871348        -1.478424         1.248974
 C        -2.735713        -0.611747         1.093571
 C        -1.794042        -0.624242         2.352458
 C        -1.383599         0.709276         1.875553
 C        -2.796835         0.945860         1.112055
 C        -2.085893         1.556350        -0.076689
 C        -0.947414         0.497412         0.332739
 O         0.434566         0.641025        -0.000033
 C        -1.669844        -0.819607        -0.026603
 H        -4.149830        -1.845328         0.410327
 H        -2.389504        -0.634607         3.272254
 H        -0.981759        -1.409077         2.370536
 H        -0.882766         1.534382         2.308929
 H        -3.698930         1.285799         1.413656
 H        -2.423571         1.372591        -1.105000
 H        -1.737060         2.528137         0.062534
 H         0.633922         1.602957        -0.100684
 H        -2.033143        -0.607969        -1.058124
 H        -1.140184        -1.754866         0.170295
