19
Iteration:  4023charge 0 multiplicity 1
 O        -3.944290        -1.498103         1.089303
 C        -2.768536        -0.642183         1.074175
 C        -1.950426        -0.618821         2.434930
 C        -1.461396         0.752919         1.847975
 C        -2.744571         0.973775         1.156719
 C        -2.020371         1.581865        -0.190454
 C        -0.907242         0.513829         0.287815
 O         0.608174         0.687506         0.115111
 C        -1.664064        -0.832326        -0.053360
 H        -4.039997        -1.931844         1.922900
 H        -2.509766        -0.571868         3.417047
 H        -1.043395        -1.327254         2.515006
 H        -0.928091         1.603207         2.154143
 H        -3.618715         1.499088         1.547678
 H        -2.606754         1.442687        -1.207137
 H        -1.880651         2.657176         0.013262
 H         0.950685        -0.152157         0.401166
 H        -2.361340        -0.687673        -0.970968
 H        -1.132179        -1.787508        -0.087008
