19
Iteration:  4649charge 0 multiplicity 1
 O        -3.862628        -1.512965         1.236667
 C        -2.732245        -0.639230         1.062862
 C        -1.915712        -0.487981         2.465402
 C        -1.428244         0.761326         1.764618
 C        -2.777323         1.011399         1.051800
 C        -1.985592         1.469937        -0.194561
 C        -0.932492         0.455350         0.282000
 O         0.492617         0.635707         0.237638
 C        -1.689234        -0.817064        -0.057905
 H        -4.461402        -1.570738         0.479900
 H        -2.750461        -0.359215         3.177946
 H        -1.139570        -1.244796         2.775196
 H        -0.726281         1.517515         2.182392
 H        -3.606100         1.558598         1.548563
 H        -2.424897         1.328423        -1.227554
 H        -1.901784         2.563960         0.052802
 H         1.035504         0.335150        -0.491528
 H        -2.144929        -0.882401        -1.043137
 H        -1.176738        -1.738565         0.155054
