19
Iteration:  4867
 O        -3.998932        -1.403998         1.086064
 C        -2.763517        -0.652994         1.116432
 C        -2.027603        -0.529936         2.454209
 C        -1.421743         0.718553         1.857548
 C        -2.811293         0.899633         1.152032
 C        -2.040832         1.454568        -0.143804
 C        -0.841329         0.522278         0.302317
 O         0.546350         0.728500        -0.077365
 C        -1.471017        -0.855610         0.219562
 H        -4.167430        -1.932793         0.256307
 H        -2.678549        -0.117982         3.272494
 H        -1.356612        -1.290261         2.914052
 H        -1.032163         1.525999         2.446774
 H        -3.706401         1.471463         1.604942
 H        -2.394815         1.291242        -1.149196
 H        -1.591159         2.433593        -0.100789
 H         0.627500        -0.013151        -0.757798
 H        -1.813720        -0.962348        -0.863530
 H        -0.867706        -1.750058         0.417177
