19
Iteration:  1512
 O        -3.896893        -1.307581         0.980489
 C        -2.701411        -0.632386         1.228342
 C        -1.863188        -0.559571         2.533519
 C        -1.386762         0.783971         1.810509
 C        -2.728040         0.945334         1.087722
 C        -2.177890         1.204258        -0.275349
 C        -0.945485         0.436357         0.306766
 O         0.345221         0.907086        -0.088529
 C        -1.454316        -1.017723         0.286106
 H        -4.644923        -0.706768         0.943937
 H        -2.438238        -0.235753         3.413191
 H        -1.224473        -1.427193         2.664614
 H        -0.853302         1.623507         2.336130
 H        -3.632178         1.361437         1.618556
 H        -2.638939         0.653058        -1.138998
 H        -1.927640         2.257568        -0.508934
 H         1.127566         0.511324         0.310263
 H        -1.754386        -1.210821        -0.770939
 H        -0.854481        -1.814100         0.795438
