19
Iteration:  4073
 O        -3.999188        -1.212513         0.913606
 C        -2.639894        -0.705525         1.146992
 C        -1.957414        -0.678183         2.515107
 C        -1.430507         0.714229         1.900350
 C        -2.804994         0.919190         1.131206
 C        -2.055738         1.473084        -0.064105
 C        -0.847005         0.503945         0.371317
 O         0.414333         0.738975        -0.190095
 C        -1.509320        -0.937368         0.132378
 H        -4.275723        -2.182293         0.806697
 H        -2.526085        -0.305869         3.371862
 H        -1.223024        -1.425487         2.687552
 H        -1.122164         1.495335         2.686953
 H        -3.572806         1.365868         1.790619
 H        -2.544479         1.473556        -0.980205
 H        -1.679854         2.508559         0.055207
 H         1.160968         0.505615         0.459802
 H        -1.686436        -0.939732        -0.892296
 H        -0.990260        -1.862614         0.496416
