19
Iteration:   273
 O        -3.924282        -1.342163         1.027909
 C        -2.704790        -0.668688         1.136434
 C        -1.888168        -0.618602         2.538247
 C        -1.347362         0.683598         1.975549
 C        -2.719541         0.916575         1.176729
 C        -2.134732         1.442677        -0.088055
 C        -0.939231         0.564420         0.349856
 O         0.350522         0.733639        -0.233789
 C        -1.505686        -0.945492         0.142382
 H        -4.071969        -1.430841         0.022289
 H        -2.571019        -0.442608         3.379817
 H        -1.185315        -1.455888         2.735269
 H        -0.872248         1.440619         2.550890
 H        -3.595442         1.438254         1.623579
 H        -2.502247         1.102083        -1.118354
 H        -1.839058         2.498916        -0.143537
 H         0.549546         1.639349        -0.527422
 H        -1.714679        -1.286988        -0.895058
 H        -0.897462        -1.741521         0.567785
