19
Iteration:  3472charge 0 multiplicity 1
 O        -3.958088        -1.350584         1.054830
 C        -2.619540        -0.678297         1.111730
 C        -1.948041        -0.536911         2.567039
 C        -1.527335         0.774880         2.035172
 C        -2.811009         0.963566         1.014852
 C        -1.975408         1.433339        -0.204350
 C        -0.877202         0.522051         0.331377
 O         0.365654         0.713406        -0.185305
 C        -1.491253        -0.948644         0.249743
 H        -4.152239        -1.544631         0.079114
 H        -2.603883        -0.635611         3.479584
 H        -1.335842        -1.437297         2.846535
 H        -1.034010         1.691005         2.527001
 H        -3.660786         1.485298         1.437442
 H        -2.173259         1.220186        -1.252295
 H        -1.784881         2.549934        -0.052468
 H         1.022527        -0.024636        -0.418925
 H        -1.670478        -1.181784        -0.800025
 H        -0.888163        -1.759157         0.648784
