19
Iteration:  4129charge 0 multiplicity 1
 O        -3.861864        -1.477045         0.944593
 C        -2.744481        -0.576042         1.147328
 C        -2.000924        -0.567860         2.436824
 C        -1.348949         0.713801         1.889786
 C        -2.762654         1.067076         1.194083
 C        -1.979945         1.511515        -0.063138
 C        -0.932681         0.423607         0.340834
 O         0.407891         0.723026        -0.054567
 C        -1.688752        -0.856220         0.112311
 H        -3.614468        -1.982768         0.188646
 H        -2.599932        -0.478981         3.380871
 H        -1.376529        -1.440019         2.551062
 H        -0.633333         1.363547         2.414258
 H        -3.529496         1.544473         1.838348
 H        -2.505179         1.365318        -0.980534
 H        -1.580744         2.514901         0.115300
 H         0.817660        -0.042932        -0.435622
 H        -1.880937        -1.153187        -0.903393
 H        -1.090207        -1.687497         0.566794
