19
Iteration:   780
 O        -3.980476        -1.307351         0.994084
 C        -2.679027        -0.660975         1.105616
 C        -1.902992        -0.560922         2.486401
 C        -1.436480         0.719687         1.870129
 C        -2.754465         0.912543         1.125972
 C        -2.046891         1.273990        -0.130583
 C        -0.866792         0.460402         0.367071
 O         0.391283         0.934968        -0.167844
 C        -1.578089        -0.967576         0.161323
 H        -4.149404        -1.592404         1.867169
 H        -2.491080        -0.593840         3.373532
 H        -1.011438        -1.174738         2.684791
 H        -0.948820         1.581576         2.282787
 H        -3.613259         1.355794         1.705868
 H        -2.434381         1.046964        -1.113472
 H        -1.666462         2.349307        -0.134434
 H         1.136979         0.479906         0.244885
 H        -1.841780        -1.194184        -0.842358
 H        -1.134668        -1.893847         0.538614
