19
Iteration:  1173charge 0 multiplicity 1
 O        -3.876599        -1.279519         0.841235
 C        -2.660992        -0.674044         1.148299
 C        -1.786495        -0.591543         2.553440
 C        -1.373779         0.725262         1.955291
 C        -2.736198         0.889302         1.269073
 C        -2.160449         1.511961        -0.013368
 C        -0.962912         0.568846         0.339719
 O         0.281773         0.550785        -0.188460
 C        -1.555920        -0.846830         0.094927
 H        -3.667941        -2.246272         0.634211
 H        -2.520673        -0.453481         3.390607
 H        -1.046677        -1.419547         2.703241
 H        -0.849779         1.463691         2.559514
 H        -3.659389         1.151458         1.716318
 H        -2.569307         1.218989        -0.995983
 H        -1.952376         2.620572         0.081393
 H         0.657077         1.387823        -0.483587
 H        -2.046078        -0.955487        -0.906182
 H        -0.743310        -1.582327         0.354231
