19
Iteration:  2806charge 0 multiplicity 1
 O        -3.881480        -1.298763         0.902460
 C        -2.692891        -0.669971         1.145594
 C        -1.931790        -0.552626         2.580347
 C        -1.408939         0.803897         2.027871
 C        -2.806153         0.878154         1.168858
 C        -2.041868         1.401436        -0.035473
 C        -0.886567         0.496623         0.382507
 O         0.395115         0.624129        -0.293956
 C        -1.568851        -0.883639         0.145137
 H        -3.726380        -2.122227         0.476176
 H        -2.742022        -0.444250         3.306637
 H        -1.323662        -1.415347         2.952582
 H        -1.007567         1.689325         2.632436
 H        -3.788284         1.354942         1.587652
 H        -2.444838         1.033024        -0.955992
 H        -1.762968         2.451694        -0.072365
 H         0.475930         1.575753        -0.431870
 H        -1.785275        -0.883647        -0.923544
 H        -0.819676        -1.612802         0.380906
