19
Iteration:  2321
 O        -3.928946        -1.393497         1.000744
 C        -2.712833        -0.636157         1.215366
 C        -2.069712        -0.462416         2.572877
 C        -1.267769         0.685171         1.838472
 C        -2.681374         0.880100         1.097456
 C        -2.015290         1.256262        -0.230790
 C        -0.931767         0.449331         0.262122
 O         0.406632         0.973655        -0.066265
 C        -1.590872        -0.995783         0.281722
 H        -4.345912        -1.193220         0.179673
 H        -2.706748        -0.059258         3.354537
 H        -1.474103        -1.291536         2.891331
 H        -0.738030         1.462254         2.467830
 H        -3.486716         1.305771         1.757741
 H        -2.449647         0.969052        -1.176521
 H        -1.704839         2.258549        -0.075653
 H         0.628952         0.729268        -0.986624
 H        -1.886700        -1.201490        -0.733607
 H        -0.994000        -1.853879         0.599291
