19
Iteration:  1667
 O        -4.000741        -1.278581         0.988660
 C        -2.747099        -0.592480         1.198127
 C        -2.024022        -0.591142         2.569817
 C        -1.401034         0.681402         1.880892
 C        -2.693338         0.954700         1.143940
 C        -1.998762         1.226741        -0.201113
 C        -0.838460         0.458276         0.356247
 O         0.388920         0.864191        -0.284781
 C        -1.444716        -0.946485         0.303491
 H        -3.832743        -2.253322         0.860002
 H        -2.623420        -0.212509         3.437355
 H        -1.402512        -1.453856         2.890380
 H        -0.862828         1.405325         2.371615
 H        -3.486225         1.508948         1.519642
 H        -2.671577         0.775578        -1.013420
 H        -1.903694         2.309062        -0.382888
 H         0.022219         1.756030        -0.509011
 H        -1.550131        -1.258167        -0.778821
 H        -0.882030        -1.710949         0.991412
