19
Iteration:  3196
 O        -3.932825        -1.298980         1.073730
 C        -2.716490        -0.640524         1.147778
 C        -1.847654        -0.598013         2.466735
 C        -1.445509         0.806461         1.814215
 C        -2.867739         0.835824         1.038790
 C        -2.086033         1.531766        -0.173700
 C        -0.915642         0.534863         0.348561
 O         0.449577         0.558529         0.020584
 C        -1.509034        -0.875516         0.145056
 H        -3.794834        -2.216694         0.866569
 H        -2.367022        -0.524275         3.431080
 H        -0.948129        -1.213557         2.751778
 H        -0.973553         1.565638         2.461192
 H        -3.821499         1.330623         1.475480
 H        -2.396763         1.584303        -1.212172
 H        -2.090123         2.523783         0.205569
 H         0.551574         0.914297        -0.876469
 H        -1.662220        -1.095047        -0.990916
 H        -0.863444        -1.639567         0.605292
