19
Iteration:   718
 O        -3.564395        -1.783334         1.154777
 C        -2.712533        -0.621179         1.114795
 C        -1.952175        -0.447432         2.521726
 C        -1.473783         0.910995         1.870847
 C        -2.901665         1.082505         1.048907
 C        -1.989386         1.647629        -0.106845
 C        -0.958218         0.550090         0.344027
 O         0.474968         0.413522         0.007704
 C        -1.777716        -0.765099        -0.064071
 H        -4.424456        -1.452442         1.031395
 H        -2.584712        -0.321082         3.447935
 H        -1.056987        -1.050664         2.512424
 H        -0.939245         1.761740         2.508319
 H        -3.795342         1.469912         1.417482
 H        -2.301175         1.681113        -1.171837
 H        -1.627149         2.588244         0.188947
 H         0.334421        -0.217232        -0.703749
 H        -2.474893        -0.587395        -0.894563
 H        -1.250875        -1.740391        -0.009269
