19
Iteration:   615charge 0 multiplicity 1
 O        -3.829064        -1.376385         0.907207
 C        -2.690760        -0.621083         1.223321
 C        -1.936929        -0.563753         2.488821
 C        -1.356698         0.786057         1.852896
 C        -2.747701         0.899032         1.246644
 C        -2.137521         1.386853        -0.085291
 C        -0.937835         0.405409         0.272302
 O         0.368032         0.838921        -0.151186
 C        -1.500988        -0.980155         0.219211
 H        -4.557947        -0.750766         0.924595
 H        -2.566257        -0.521836         3.396481
 H        -1.311977        -1.476404         2.640303
 H        -0.831697         1.586642         2.336985
 H        -3.567626         1.370687         1.972747
 H        -2.536907         1.082706        -1.025256
 H        -1.918022         2.496849        -0.084084
 H         0.435607         0.718662        -1.136086
 H        -1.918311        -1.347260        -0.792321
 H        -0.894829        -1.785523         0.724393
