19
Iteration:  1932charge 0 multiplicity 1
 O        -3.771328        -1.546509         1.155845
 C        -2.704205        -0.609283         1.103524
 C        -1.794100        -0.472203         2.420624
 C        -1.482974         0.881716         1.758097
 C        -2.817942         0.942967         1.065051
 C        -2.146266         1.461844        -0.180636
 C        -0.955452         0.492158         0.261288
 O         0.481923         0.556739         0.124881
 C        -1.669450        -0.822415        -0.016058
 H        -4.628789        -1.113178         1.239710
 H        -2.370052        -0.406689         3.364096
 H        -1.009903        -1.232014         2.679619
 H        -1.001849         1.782816         2.221004
 H        -3.584893         1.550089         1.614893
 H        -2.687585         1.427834        -1.136841
 H        -1.695421         2.471033        -0.081263
 H         0.833255         0.197992         0.972977
 H        -2.154055        -1.187850        -0.979605
 H        -0.971479        -1.638580         0.338822
