19
Iteration:  1912
 O        -3.893250        -1.410185         1.312550
 C        -2.675137        -0.726294         1.139211
 C        -1.645194        -0.541734         2.276133
 C        -1.478767         0.834564         1.720120
 C        -2.847287         0.903690         1.008174
 C        -2.109953         1.514634        -0.266988
 C        -0.964049         0.528958         0.367291
 O         0.435937         0.602287         0.242748
 C        -1.642866        -0.889236        -0.032685
 H        -4.467326        -1.130250         0.622538
 H        -2.100265        -0.573395         3.258959
 H        -0.824108        -1.275200         2.284119
 H        -0.822791         1.616608         2.202632
 H        -3.812341         1.250236         1.414540
 H        -2.428211         1.281060        -1.275100
 H        -2.041700         2.649287        -0.291761
 H         0.745356         0.803086         1.171957
 H        -2.194237        -0.851845        -1.008739
 H        -1.128141        -1.823636        -0.113321
