19
Iteration:   628charge 0 multiplicity 1
 O        -3.947537        -1.288927         0.896778
 C        -2.698448        -0.657014         1.165085
 C        -1.809866        -0.620573         2.571900
 C        -1.341537         0.680831         1.892785
 C        -2.725272         0.945084         1.195116
 C        -2.169089         1.239950        -0.152759
 C        -0.898204         0.484603         0.379076
 O         0.339702         0.928967        -0.157050
 C        -1.491774        -1.014788         0.219948
 H        -4.602017        -0.559821         0.702549
 H        -2.364120        -0.266751         3.406509
 H        -1.051486        -1.383361         2.773345
 H        -0.913803         1.448410         2.471003
 H        -3.637034         1.415062         1.659699
 H        -2.793161         0.927516        -0.930956
 H        -1.781229         2.270817        -0.315060
 H         0.314767         0.724901        -1.093701
 H        -1.715463        -1.232512        -0.804092
 H        -0.870446        -1.758234         0.712602
