19
Iteration:  4406charge 0 multiplicity 1
 O        -3.988567        -1.390270         0.915611
 C        -2.739398        -0.740327         1.215401
 C        -2.004163        -0.527086         2.514473
 C        -1.350183         0.736260         1.841548
 C        -2.708453         1.006409         1.143879
 C        -2.055490         1.428259        -0.194149
 C        -0.899804         0.463842         0.346929
 O         0.422966         0.751060        -0.087404
 C        -1.579147        -0.823007         0.283439
 H        -3.829677        -1.704116         0.006192
 H        -2.445964        -0.270643         3.447197
 H        -1.322255        -1.331233         2.923970
 H        -0.753403         1.349223         2.501740
 H        -3.517292         1.624297         1.429794
 H        -2.539770         0.994634        -1.154493
 H        -1.713261         2.446496        -0.285183
 H         0.905679        -0.138978        -0.105443
 H        -1.627667        -1.175992        -0.818005
 H        -0.828428        -1.569321         0.657186
