19
Iteration:  4277
 O        -3.972326        -1.352195         0.963790
 C        -2.779750        -0.590783         1.142481
 C        -1.968032        -0.563098         2.526223
 C        -1.460966         0.759680         1.875866
 C        -2.829229         0.899169         1.117802
 C        -2.007151         1.476969        -0.117863
 C        -0.801330         0.439035         0.481542
 O         0.519058         0.644965        -0.170853
 C        -1.548099        -0.928502         0.183084
 H        -3.816318        -1.904744         0.141505
 H        -2.563289        -0.300913         3.396496
 H        -1.316346        -1.463949         2.651693
 H        -0.921040         1.540166         2.489051
 H        -3.627992         1.326977         1.655670
 H        -2.458545         1.440307        -1.141259
 H        -1.680431         2.507840         0.099856
 H         0.555402         1.569385        -0.520179
 H        -1.928245        -1.019201        -0.887431
 H        -1.008151        -1.773577         0.590883
