19
Iteration:  1610
 O        -3.880723        -1.473617         1.116502
 C        -2.714230        -0.656516         1.184820
 C        -1.807532        -0.449315         2.439472
 C        -1.436184         0.872221         1.756716
 C        -2.844155         0.976929         1.096228
 C        -2.087151         1.435792        -0.306467
 C        -0.961512         0.531779         0.297308
 O         0.433439         0.628084         0.180390
 C        -1.609852        -0.925964         0.075646
 H        -3.652790        -2.327428         1.458417
 H        -2.238507        -0.275136         3.451986
 H        -0.975957        -1.188144         2.498325
 H        -0.841090         1.664144         2.265690
 H        -3.692187         1.597139         1.432637
 H        -2.599882         1.289077        -1.292234
 H        -2.027748         2.528926        -0.175321
 H         0.925242         0.241776        -0.568641
 H        -2.013535        -1.070175        -0.971378
 H        -0.956329        -1.827497         0.306411
