19
Iteration:  3660
 O        -3.926728        -1.251258         1.015264
 C        -2.642342        -0.676725         1.107751
 C        -1.962261        -0.539232         2.458231
 C        -1.462218         0.775337         1.866868
 C        -2.784699         0.870844         1.092683
 C        -2.038329         1.431028        -0.145302
 C        -0.936115         0.464147         0.330113
 O         0.485837         0.722563         0.011694
 C        -1.513511        -0.924536         0.092527
 H        -3.973827        -1.900477         1.752261
 H        -2.758845        -0.378914         3.251140
 H        -1.370492        -1.462832         2.743025
 H        -1.143806         1.622557         2.441334
 H        -3.658961         1.341944         1.547557
 H        -2.580036         1.263903        -1.112049
 H        -1.831534         2.581219         0.013598
 H         0.610984         0.093754        -0.699747
 H        -2.024568        -1.215415        -0.796791
 H        -0.886713        -1.765797         0.462310
