19
Iteration:   826charge 0 multiplicity 1
 O        -3.948426        -1.263738         1.000496
 C        -2.739718        -0.633920         1.180489
 C        -1.919176        -0.566885         2.546788
 C        -1.345905         0.703443         1.816816
 C        -2.753692         0.886186         1.194048
 C        -2.130484         1.347403        -0.186631
 C        -0.938731         0.475761         0.307571
 O         0.419401         0.909273        -0.165420
 C        -1.513452        -1.014191         0.208491
 H        -3.984263        -1.863802         0.253452
 H        -2.468979        -0.207765         3.429685
 H        -1.399665        -1.465334         2.900604
 H        -0.792267         1.536762         2.424073
 H        -3.570130         1.310138         1.719748
 H        -2.667607         0.918836        -1.043039
 H        -1.981615         2.379237        -0.342699
 H         1.083894         0.307191         0.253912
 H        -1.609112        -1.378606        -0.807848
 H        -0.808980        -1.702590         0.706344
