19
Iteration:  3774charge 0 multiplicity 1
 O        -3.957369        -1.360160         0.866447
 C        -2.763951        -0.647207         1.253365
 C        -1.922985        -0.623352         2.529349
 C        -1.394423         0.687380         1.859087
 C        -2.663581         1.013665         1.193164
 C        -2.011867         1.329541        -0.239106
 C        -0.903218         0.447312         0.275409
 O         0.374718         0.898675        -0.073711
 C        -1.572321        -0.959602         0.229199
 H        -4.681281        -0.736407         1.115742
 H        -2.416059        -0.336027         3.474014
 H        -1.264832        -1.553122         2.570670
 H        -0.576423         1.441126         2.178400
 H        -3.575843         1.579703         1.502864
 H        -2.622719         0.931365        -1.127371
 H        -1.758888         2.378997        -0.365287
 H         1.031643         0.390183         0.512281
 H        -1.827668        -1.393220        -0.826628
 H        -0.952060        -1.764840         0.739657
