19
Iteration:  2887charge 0 multiplicity 1
 O        -3.705588        -1.574195         1.045522
 C        -2.682866        -0.625896         1.155194
 C        -1.815509        -0.503144         2.540170
 C        -1.459512         0.810215         1.782505
 C        -2.802019         1.049918         1.149039
 C        -2.045495         1.497925        -0.251082
 C        -0.976722         0.547117         0.307563
 O         0.438103         0.482220         0.075864
 C        -1.801622        -0.824662         0.054811
 H        -4.241453        -1.423798         0.286091
 H        -2.436782        -0.165441         3.392879
 H        -1.097494        -1.268928         2.781958
 H        -0.891737         1.565938         2.271831
 H        -3.607687         1.514809         1.600254
 H        -2.387784         1.205621        -1.248999
 H        -2.064115         2.568545        -0.130150
 H         0.809923         0.996409         0.792850
 H        -2.377362        -0.660597        -0.883597
 H        -1.165068        -1.772602         0.011268
