19
Iteration:  1593charge 0 multiplicity 1
 O        -3.743815        -1.698913         1.157311
 C        -2.751895        -0.601835         1.116155
 C        -1.839873        -0.419315         2.384454
 C        -1.453019         0.893337         1.749712
 C        -2.808104         1.100216         1.002228
 C        -2.063866         1.534766        -0.206543
 C        -0.995817         0.542567         0.358521
 O         0.442517         0.489243         0.154283
 C        -1.717416        -0.754541         0.090469
 H        -3.348168        -2.388493         1.650691
 H        -2.461199        -0.391240         3.277572
 H        -1.033561        -1.092716         2.673518
 H        -1.028506         1.741754         2.233710
 H        -3.631273         1.552244         1.497022
 H        -2.496062         1.301141        -1.216306
 H        -1.681031         2.531096        -0.403165
 H         0.522420        -0.367823        -0.343573
 H        -2.112904        -0.918954        -0.890973
 H        -1.101509        -1.634657         0.274670
