19
Iteration:  1600charge 0 multiplicity 1
 O        -3.799044        -1.621160         1.132957
 C        -2.769830        -0.652305         1.148993
 C        -1.783587        -0.407701         2.398009
 C        -1.469760         0.886571         1.761086
 C        -2.798925         1.083675         1.042218
 C        -2.086744         1.516239        -0.251665
 C        -0.956431         0.533474         0.324183
 O         0.443256         0.549990         0.182325
 C        -1.715183        -0.840513         0.066776
 H        -3.412944        -2.389700         1.587435
 H        -2.405529        -0.245008         3.308252
 H        -0.983862        -1.165560         2.522897
 H        -0.901164         1.650781         2.267077
 H        -3.640504         1.561647         1.504300
 H        -2.389378         1.038021        -1.213688
 H        -1.899114         2.603441        -0.211682
 H         0.544196        -0.185550        -0.436596
 H        -1.984122        -0.965534        -1.021559
 H        -1.024639        -1.674335         0.452491
