19
Iteration:  4001charge 0 multiplicity 1
 O        -3.812658        -1.477805         1.023858
 C        -2.739643        -0.676068         1.093815
 C        -1.857499        -0.547994         2.379863
 C        -1.456882         0.784451         1.890102
 C        -2.835224         0.924419         1.045602
 C        -1.973434         1.587271        -0.108412
 C        -0.936202         0.527950         0.468765
 O         0.390216         0.548475         0.016064
 C        -1.610500        -0.760691         0.023563
 H        -4.261003        -1.467965         1.925385
 H        -2.622245        -0.391658         3.196140
 H        -1.153818        -1.417849         2.579405
 H        -1.107253         1.612753         2.444079
 H        -3.756243         1.406118         1.404998
 H        -2.240695         1.683295        -1.239973
 H        -1.691077         2.610480         0.241091
 H         0.719211        -0.380354        -0.171056
 H        -2.073882        -0.761235        -1.022094
 H        -0.890582        -1.579121         0.152972
