19
Iteration:  1337
 O        -3.939532        -1.311140         0.959605
 C        -2.676194        -0.739553         1.174539
 C        -1.872562        -0.574838         2.566367
 C        -1.340733         0.750534         1.865901
 C        -2.739098         0.829648         1.089791
 C        -2.111070         1.315670        -0.135658
 C        -0.912111         0.447806         0.325934
 O         0.382753         0.891090        -0.104785
 C        -1.540207        -0.936082         0.191751
 H        -4.544874        -0.668078         1.272142
 H        -2.711468        -0.296585         3.312672
 H        -1.244831        -1.362027         3.086022
 H        -0.759847         1.571287         2.407666
 H        -3.663309         1.223613         1.592690
 H        -2.530248         1.138799        -1.190122
 H        -1.699031         2.393695        -0.045766
 H         0.496779         0.939081        -1.090798
 H        -2.021394        -1.031284        -0.831475
 H        -0.857620        -1.786798         0.536109
