19
Iteration:  1478
 O        -3.968505        -1.186280         0.895723
 C        -2.638508        -0.688937         1.160352
 C        -1.813900        -0.496799         2.672779
 C        -1.421667         0.745168         1.808927
 C        -2.647436         0.791946         1.116397
 C        -2.206758         1.202859        -0.261272
 C        -0.894309         0.398289         0.356344
 O         0.285739         0.983140        -0.159349
 C        -1.477359        -1.074957         0.277984
 H        -4.585618        -0.535848         1.138366
 H        -2.491509        -0.101715         3.443644
 H        -1.241823        -1.157138         3.322373
 H        -0.908206         1.728495         2.222178
 H        -3.685220         1.079140         1.583324
 H        -2.602748         0.710373        -1.168748
 H        -1.841683         2.254088        -0.445653
 H         1.061469         0.628840         0.361116
 H        -1.477196        -1.405480        -0.802136
 H        -0.860240        -1.952857         0.644613
