19
Iteration:   201
 O        -3.624033        -1.756822         1.277146
 C        -2.747369        -0.600827         1.114921
 C        -1.852523        -0.467173         2.394859
 C        -1.480216         0.842496         1.778851
 C        -2.858434         1.103884         1.053835
 C        -2.002653         1.638499        -0.129864
 C        -0.981692         0.509229         0.336153
 O         0.382439         0.382574         0.025759
 C        -1.748028        -0.735016        -0.062943
 H        -4.318957        -1.836631         0.524790
 H        -2.488718        -0.351345         3.294126
 H        -0.957308        -1.082038         2.505757
 H        -0.917763         1.510677         2.518607
 H        -3.732759         1.779692         1.448906
 H        -2.404877         1.587992        -1.115518
 H        -1.855583         2.705782         0.224481
 H         0.930603         0.917302         0.656436
 H        -2.112905        -0.708604        -1.100749
 H        -0.973553        -1.529152         0.043685
