19
Iteration:  4645
 O        -3.830822        -1.471271         1.216720
 C        -2.695796        -0.650031         1.066489
 C        -1.897612        -0.502466         2.442197
 C        -1.448883         0.774935         1.784771
 C        -2.814160         1.030367         1.035317
 C        -2.003117         1.466387        -0.184210
 C        -0.913757         0.425438         0.296277
 O         0.478807         0.631696         0.237870
 C        -1.709430        -0.821961        -0.039186
 H        -4.482226        -1.586732         0.478719
 H        -2.697958        -0.351061         3.164059
 H        -1.162914        -1.305133         2.736083
 H        -0.724854         1.533246         2.159846
 H        -3.611718         1.569750         1.472376
 H        -2.336309         1.272662        -1.183643
 H        -1.933029         2.452198         0.141147
 H         0.943680         0.276324        -0.585972
 H        -2.218359        -0.870722        -1.000231
 H        -1.097509        -1.710538         0.213218
