19
Iteration:  1335
 O        -3.943584        -1.311355         0.942280
 C        -2.680353        -0.730551         1.176624
 C        -1.882143        -0.584171         2.594699
 C        -1.332036         0.741276         1.903293
 C        -2.738279         0.842143         1.086411
 C        -2.114551         1.306623        -0.136983
 C        -0.906957         0.449881         0.322917
 O         0.372390         0.902319        -0.132975
 C        -1.519712        -0.946649         0.189198
 H        -4.594331        -0.632580         1.219475
 H        -2.685349        -0.269970         3.276726
 H        -1.276219        -1.312665         3.149420
 H        -0.749456         1.517128         2.340922
 H        -3.622488         1.182121         1.618289
 H        -2.483331         1.183109        -1.159808
 H        -1.701620         2.361033        -0.029585
 H         0.430079         0.896452        -1.104620
 H        -1.957256        -1.044734        -0.802247
 H        -0.880903        -1.758678         0.577462
