19
Iteration:  4196
 O        -3.883080        -1.462904         1.025356
 C        -2.737187        -0.678557         1.082690
 C        -1.804825        -0.629479         2.335192
 C        -1.396221         0.735051         1.790827
 C        -2.790961         1.007105         1.126777
 C        -2.028167         1.555126        -0.178949
 C        -0.958843         0.513902         0.377394
 O         0.404818         0.666643         0.223469
 C        -1.663506        -0.822915         0.056662
 H        -4.601398        -0.929565         1.496196
 H        -2.286172        -0.708229         3.337597
 H        -0.962364        -1.335528         2.335770
 H        -0.812179         1.465811         2.302829
 H        -3.629946         1.660484         1.526406
 H        -2.384935         1.245548        -1.194218
 H        -1.572744         2.575987        -0.071178
 H         0.817723        -0.053946        -0.345284
 H        -2.023068        -1.026250        -1.013686
 H        -1.090033        -1.796230         0.235947
