19
Iteration:  3614
 O        -3.898781        -1.314755         0.974335
 C        -2.775411        -0.621738         1.202648
 C        -1.957231        -0.578257         2.496702
 C        -1.400705         0.762806         1.872909
 C        -2.726907         1.029918         1.131194
 C        -2.034759         1.328716        -0.205481
 C        -0.875096         0.451496         0.301278
 O         0.427266         0.713484        -0.006235
 C        -1.631870        -0.988770         0.212890
 H        -3.543977        -2.080734         0.405910
 H        -2.529607        -0.314033         3.484334
 H        -1.237105        -1.408521         2.746662
 H        -0.885980         1.651710         2.489303
 H        -3.642968         1.541429         1.520389
 H        -2.424180         1.181263        -1.279980
 H        -1.684991         2.477198        -0.276698
 H         0.435268         1.390274        -0.748565
 H        -1.836256        -1.080131        -0.846864
 H        -1.037074        -1.827616         0.548759
