19
Iteration:  1873
 O        -3.966152        -1.402338         1.195644
 C        -2.698590        -0.657545         1.068553
 C        -1.937953        -0.565453         2.390684
 C        -1.424560         0.766463         1.866344
 C        -2.816671         0.937385         1.085440
 C        -2.049672         1.484832        -0.105836
 C        -0.875750         0.486679         0.385196
 O         0.456271         0.697829        -0.069272
 C        -1.554429        -0.922085         0.047714
 H        -3.687778        -2.359477         0.948748
 H        -2.636878        -0.278076         3.204142
 H        -1.198198        -1.347918         2.575384
 H        -0.824718         1.486086         2.377068
 H        -3.650925         1.324899         1.626347
 H        -2.541640         1.272463        -1.083448
 H        -1.620675         2.466227        -0.010776
 H         0.663945         1.617159        -0.212026
 H        -1.933626        -0.985972        -0.979745
 H        -0.875887        -1.766802         0.350775
