19
Iteration:   224charge 0 multiplicity 1
 O        -3.731710        -1.608051         1.377408
 C        -2.689910        -0.719760         1.109534
 C        -1.768389        -0.607283         2.294071
 C        -1.513276         0.845160         1.734999
 C        -2.774515         1.004534         1.053355
 C        -2.013035         1.705503        -0.230427
 C        -0.991236         0.523264         0.307907
 O         0.411712         0.499629         0.223208
 C        -1.814332        -0.775507        -0.086692
 H        -4.171410        -1.940949         0.635956
 H        -2.412185        -0.480930         3.190341
 H        -0.937255        -1.350620         2.362659
 H        -0.834279         1.522635         2.367366
 H        -3.658465         1.482343         1.551540
 H        -2.332210         1.515161        -1.257995
 H        -1.637111         2.753310        -0.009530
 H         0.756064         1.400008         0.242267
 H        -2.462936        -0.675188        -1.004183
 H        -1.163281        -1.695931        -0.192226
