19
Iteration:  4292charge 0 multiplicity 1
 O        -3.922817        -1.380462         0.987023
 C        -2.714252        -0.676615         1.157206
 C        -1.956495        -0.525919         2.466645
 C        -1.355976         0.759658         1.881701
 C        -2.735718         0.984407         1.123704
 C        -2.014858         1.386161        -0.107557
 C        -0.940351         0.502558         0.304431
 O         0.427520         0.596520        -0.023334
 C        -1.603384        -0.872749         0.132439
 H        -4.014543        -1.586748         0.017944
 H        -2.663898        -0.323587         3.302141
 H        -1.288804        -1.275395         2.861091
 H        -0.970569         1.600387         2.459252
 H        -3.667876         1.526438         1.460217
 H        -2.410759         1.058771        -1.044981
 H        -1.765217         2.474294         0.041968
 H         0.708402         1.533867         0.226126
 H        -1.922481        -0.899251        -0.855461
 H        -0.978165        -1.743726         0.283317
