19
Iteration:  3434charge 0 multiplicity 1
 O        -3.772108        -1.601845         1.017124
 C        -2.730127        -0.672645         1.131799
 C        -2.099987        -0.381533         2.538841
 C        -1.334524         0.786720         1.872969
 C        -2.747621         1.044562         1.137513
 C        -1.998805         1.560051        -0.106197
 C        -0.889172         0.426918         0.421953
 O         0.357600         0.610922        -0.191500
 C        -1.624573        -0.816961         0.135565
 H        -3.932293        -1.992053         0.174306
 H        -2.949918        -0.101861         3.137182
 H        -1.485782        -1.173190         2.973511
 H        -0.907653         1.553565         2.459435
 H        -3.710414         1.500739         1.505912
 H        -2.404335         1.551635        -1.175561
 H        -1.685216         2.579959         0.043575
 H         0.919947        -0.167988         0.008040
 H        -1.806848        -1.123039        -0.875608
 H        -1.057215        -1.619877         0.620508
