19
Iteration:  4226
 O        -3.873851        -1.368093         0.841691
 C        -2.731460        -0.633794         1.107064
 C        -1.979444        -0.530993         2.533397
 C        -1.355556         0.670975         1.852062
 C        -2.729510         0.915415         1.132711
 C        -2.129471         1.510194        -0.067217
 C        -0.836108         0.454461         0.383505
 O         0.454524         0.663990         0.024188
 C        -1.643341        -0.838628         0.085592
 H        -4.074275        -1.913523         1.591458
 H        -2.653756        -0.289222         3.390756
 H        -1.256019        -1.263543         2.866482
 H        -0.958403         1.566453         2.387312
 H        -3.445612         1.646270         1.572568
 H        -2.558156         1.183676        -0.988363
 H        -1.761680         2.570208         0.001960
 H         0.658008         0.425571        -0.860726
 H        -1.978907        -0.956591        -0.904577
 H        -1.151780        -1.753950         0.430533
