19
Iteration:  3919charge 0 multiplicity 1
 O        -3.946102        -1.280420         0.943570
 C        -2.648818        -0.686268         1.083578
 C        -1.890895        -0.606071         2.450854
 C        -1.483963         0.752835         1.912464
 C        -2.776109         1.013852         1.093289
 C        -2.041788         1.443400        -0.144898
 C        -0.908801         0.456031         0.381089
 O         0.367048         0.789126        -0.095218
 C        -1.489812        -1.018975         0.189609
 H        -4.471804        -1.210826         1.740298
 H        -2.608416        -0.773324         3.309849
 H        -1.100278        -1.378721         2.445152
 H        -0.759880         1.346473         2.632470
 H        -3.788496         1.335333         1.365822
 H        -2.493458         1.326535        -1.095120
 H        -1.503187         2.431557        -0.178396
 H         0.975766         0.358325         0.494399
 H        -1.817987        -1.290113        -0.816545
 H        -1.040066        -2.010148         0.596100
