19
Iteration:  2108
 O        -3.869291        -1.472255         1.100267
 C        -2.671597        -0.626905         1.175736
 C        -1.932879        -0.486421         2.477626
 C        -1.519824         0.808026         1.860116
 C        -2.837483         0.943844         0.979277
 C        -2.019491         1.476320        -0.229959
 C        -0.932521         0.526060         0.349471
 O         0.427890         0.585297        -0.102606
 C        -1.531120        -0.842172         0.154584
 H        -3.860101        -2.091023         1.812346
 H        -2.607419        -0.321890         3.345288
 H        -1.039211        -1.117912         2.685605
 H        -1.063618         1.640133         2.296200
 H        -3.755166         1.273933         1.351957
 H        -2.401154         1.352764        -1.225229
 H        -1.709517         2.513566        -0.000267
 H         1.079663         0.601360         0.631070
 H        -2.002144        -0.972600        -0.860394
 H        -0.994592        -1.752851         0.460311
