19
Iteration:   949charge 0 multiplicity 1
 O        -3.991419        -1.250236         0.981578
 C        -2.706276        -0.738553         1.129164
 C        -1.736313        -0.544799         2.514709
 C        -1.418476         0.785688         1.837420
 C        -2.835047         0.906381         1.253664
 C        -2.172433         1.312610        -0.104547
 C        -0.924429         0.487463         0.347176
 O         0.418378         0.699105        -0.078336
 C        -1.467732        -0.940279         0.138030
 H        -4.190234        -1.206805         0.066781
 H        -2.435273        -0.241512         3.304409
 H        -0.917869        -1.210072         2.769344
 H        -0.794312         1.610655         2.283141
 H        -3.649799         1.437128         1.834799
 H        -2.677549         1.002398        -1.026233
 H        -1.962731         2.351127        -0.075789
 H         0.518245         1.065310        -0.986531
 H        -1.604844        -1.101809        -0.928703
 H        -0.744369        -1.593232         0.598511
