19
Iteration:  2282
 O        -3.881138        -1.471544         1.235216
 C        -2.700177        -0.708280         1.064198
 C        -1.907810        -0.475857         2.413229
 C        -1.480793         0.838013         1.880314
 C        -2.774666         0.934345         1.011054
 C        -2.035890         1.424329        -0.227676
 C        -0.934760         0.559986         0.382021
 O         0.379468         0.553996        -0.018105
 C        -1.510006        -0.844638         0.151306
 H        -4.367304        -1.426739         0.362880
 H        -2.561069        -0.512204         3.313084
 H        -1.100256        -1.234433         2.589461
 H        -1.166377         1.688977         2.379542
 H        -3.679793         1.405887         1.254431
 H        -2.297033         1.300528        -1.312709
 H        -1.611068         2.468013        -0.089274
 H         0.797055         1.463425        -0.063175
 H        -1.824061        -1.115590        -0.886577
 H        -0.787948        -1.582516         0.566921
