19
Iteration:  3760
 O        -3.956819        -1.398240         0.946241
 C        -2.781314        -0.590566         1.154608
 C        -1.898969        -0.610066         2.510040
 C        -1.314049         0.750957         1.851357
 C        -2.817163         0.976594         1.067618
 C        -2.034965         1.350432        -0.099325
 C        -0.920639         0.450097         0.359105
 O         0.439431         0.807451        -0.130828
 C        -1.541403        -0.951738         0.189715
 H        -4.746291        -0.873832         0.964242
 H        -2.495373        -0.432471         3.433807
 H        -1.094495        -1.391435         2.751836
 H        -0.973821         1.408128         2.599524
 H        -3.584380         1.592491         1.549894
 H        -2.437107         1.153571        -1.161112
 H        -1.667521         2.407295        -0.122767
 H         1.124996         0.516618         0.495909
 H        -1.967640        -1.104657        -0.816818
 H        -0.930959        -1.810421         0.522408
