19
Iteration:  3617
 O        -3.927161        -1.309924         0.969165
 C        -2.765515        -0.612443         1.212396
 C        -1.954254        -0.606519         2.526708
 C        -1.433640         0.787389         1.880958
 C        -2.718046         1.013386         1.121859
 C        -2.020916         1.331496        -0.214610
 C        -0.880073         0.472325         0.300664
 O         0.430632         0.731680        -0.016718
 C        -1.610561        -0.997493         0.188329
 H        -3.696503        -2.106368         0.487946
 H        -2.437925        -0.259004         3.468881
 H        -1.228856        -1.428151         2.740185
 H        -0.925964         1.510171         2.474515
 H        -3.582637         1.510548         1.588926
 H        -2.420812         1.228118        -1.215778
 H        -1.623207         2.369813        -0.293247
 H         0.473275         1.296543        -0.766608
 H        -1.824839        -1.208089        -0.863926
 H        -0.948425        -1.795523         0.621186
