19
Iteration:   625
 O        -3.925952        -1.308591         0.893624
 C        -2.678436        -0.636034         1.182893
 C        -1.837331        -0.604545         2.552125
 C        -1.346735         0.689706         1.877025
 C        -2.736836         0.957750         1.208533
 C        -2.171690         1.255014        -0.119591
 C        -0.886186         0.475758         0.349121
 O         0.348158         0.914666        -0.157946
 C        -1.507071        -1.009279         0.224333
 H        -4.592007        -0.587594         0.736888
 H        -2.435714        -0.334406         3.470108
 H        -1.105789        -1.433511         2.721988
 H        -0.985492         1.533019         2.460299
 H        -3.667785         1.386271         1.803877
 H        -2.757012         0.957223        -1.007780
 H        -1.756958         2.289183        -0.273041
 H         0.323014         0.715682        -1.131274
 H        -1.658872        -1.389380        -0.870322
 H        -0.895622        -1.848747         0.696231
