19
Iteration:  2356charge 0 multiplicity 1
 O        -3.828465        -1.348165         1.026516
 C        -2.711420        -0.587686         1.109267
 C        -1.900607        -0.510045         2.496079
 C        -1.479810         0.839132         1.923693
 C        -2.822255         0.932592         1.162878
 C        -2.108990         1.340251        -0.176097
 C        -0.936234         0.493905         0.275562
 O         0.385163         0.653908        -0.100529
 C        -1.490324        -0.905875         0.210178
 H        -4.008957        -1.396566         0.103939
 H        -2.482443        -0.553696         3.415312
 H        -1.054818        -1.145154         2.596918
 H        -0.884631         1.493042         2.453275
 H        -3.702912         1.323379         1.567211
 H        -2.586437         1.193424        -1.147113
 H        -1.865032         2.395725        -0.189700
 H         0.769382        -0.172037         0.260914
 H        -1.698097        -1.125034        -0.817220
 H        -0.752834        -1.605156         0.594257
