19
Iteration:  4497charge 0 multiplicity 1
 O        -3.837332        -1.522256         1.202489
 C        -2.751532        -0.646800         1.037940
 C        -1.870947        -0.459197         2.388379
 C        -1.430862         0.868916         1.830693
 C        -2.753847         1.039799         1.093873
 C        -1.927078         1.469137        -0.155466
 C        -0.917249         0.459489         0.373015
 O         0.374621         0.593767         0.206708
 C        -1.705474        -0.916828        -0.082711
 H        -4.454964        -1.504470         0.403800
 H        -2.548143        -0.510728         3.210637
 H        -1.170361        -1.172052         2.718735
 H        -0.998279         1.741841         2.407995
 H        -3.684692         1.563646         1.396892
 H        -2.316283         1.286581        -1.162389
 H        -1.725693         2.577958        -0.087358
 H         0.932902         0.355402        -0.560503
 H        -1.863223        -0.871303        -1.226795
 H        -1.233994        -1.869990         0.213377
