19
Iteration:  4740charge 0 multiplicity 1
 O        -3.922521        -1.424022         0.955727
 C        -2.752977        -0.545174         1.138717
 C        -2.004834        -0.570281         2.536189
 C        -1.343436         0.730599         1.790505
 C        -2.785686         1.036397         1.161767
 C        -2.081585         1.406908        -0.134103
 C        -0.883030         0.473187         0.235817
 O         0.454817         0.711551        -0.003961
 C        -1.524004        -0.985611         0.276336
 H        -4.042085        -1.451898         0.003787
 H        -2.526940        -0.134742         3.430280
 H        -1.472722        -1.464908         2.791584
 H        -0.835847         1.460847         2.378852
 H        -3.383049         1.654195         1.862833
 H        -2.519136         1.157789        -1.132681
 H        -1.942745         2.545760         0.073195
 H         0.638321         0.590907        -0.920434
 H        -1.836537        -1.205882        -0.751475
 H        -0.841528        -1.784759         0.648922
