19
Iteration:  2069
 O        -3.905102        -1.491289         1.349251
 C        -2.740022        -0.700948         1.100073
 C        -1.886588        -0.496999         2.393451
 C        -1.462812         0.851240         1.704716
 C        -2.807252         0.935165         0.930330
 C        -1.973746         1.542427        -0.256115
 C        -0.905441         0.476576         0.326787
 O         0.400492         0.635043         0.089853
 C        -1.595927        -0.840839         0.017277
 H        -3.557803        -2.425963         1.507183
 H        -2.585203        -0.308748         3.216116
 H        -1.168369        -1.170484         2.852308
 H        -0.943466         1.508083         2.434824
 H        -3.775635         1.420046         1.291343
 H        -2.309093         1.432992        -1.332470
 H        -1.764693         2.585572         0.009233
 H         0.818300         0.489897         0.951845
 H        -2.049606        -0.870891        -0.953646
 H        -0.885735        -1.639654         0.070764
