19
Iteration:    76
 O        -3.780740        -1.590551         1.091299
 C        -2.696271        -0.635598         1.137468
 C        -1.823977        -0.492096         2.452617
 C        -1.486542         0.793555         1.849747
 C        -2.902718         0.969995         1.021715
 C        -2.022762         1.571171        -0.147780
 C        -0.972910         0.526327         0.360784
 O         0.422759         0.605795        -0.029754
 C        -1.650916        -0.783054         0.035342
 H        -4.026069        -1.743453         2.048689
 H        -2.309079        -0.249036         3.395813
 H        -1.152871        -1.310348         2.740576
 H        -1.017776         1.646367         2.332266
 H        -3.695487         1.488081         1.493337
 H        -2.290876         1.442376        -1.231744
 H        -1.674383         2.561804        -0.016704
 H         0.856920        -0.283131        -0.062036
 H        -2.058791        -1.104856        -0.922108
 H        -0.984156        -1.575787         0.383474
