19
Iteration:  1128
 O        -3.809843        -1.454434         0.900263
 C        -2.694093        -0.609612         1.169870
 C        -2.073170        -0.646423         2.653668
 C        -1.365489         0.633090         2.037021
 C        -2.683514         0.948493         1.205109
 C        -1.973314         1.531820         0.006513
 C        -0.919239         0.488164         0.299817
 O         0.236151         0.699465        -0.480944
 C        -1.489213        -0.844796         0.240266
 H        -3.923149        -1.508866        -0.095272
 H        -2.816892        -0.241389         3.378270
 H        -1.440023        -1.513655         2.982261
 H        -0.890189         1.352977         2.573964
 H        -3.503689         1.531549         1.568451
 H        -2.660210         1.492238        -0.834817
 H        -1.634316         2.583038         0.270574
 H         0.469817         1.615573        -0.211479
 H        -1.888083        -1.082660        -0.775236
 H        -0.908477        -1.647235         0.746402
