19
Iteration:  4237charge 0 multiplicity 1
 O        -3.861097        -1.320186         0.846124
 C        -2.692344        -0.614491         1.084460
 C        -2.036939        -0.544820         2.520849
 C        -1.382332         0.704701         1.899363
 C        -2.739706         0.966268         1.179465
 C        -2.022628         1.470139        -0.065105
 C        -0.958575         0.466567         0.397222
 O         0.408739         0.641631        -0.057234
 C        -1.520958        -0.917211         0.137597
 H        -3.822029        -2.055863         1.455605
 H        -2.837461        -0.182138         3.203480
 H        -1.447817        -1.366017         2.923990
 H        -0.829498         1.509476         2.435063
 H        -3.687555         1.234995         1.723519
 H        -2.408283         1.428945        -1.062410
 H        -1.717131         2.552836         0.051658
 H         0.230943         0.579984        -1.006018
 H        -1.850651        -0.902954        -0.858431
 H        -0.899363        -1.793090         0.332807
