19
Iteration:  2562charge 0 multiplicity 1
 O        -3.825187        -1.425535         1.244056
 C        -2.711982        -0.646546         1.151527
 C        -1.669579        -0.587230         2.320988
 C        -1.453983         0.771092         1.806262
 C        -2.909775         0.908984         1.004467
 C        -2.139449         1.577353        -0.182385
 C        -1.004995         0.623892         0.316012
 O         0.429847         0.387544         0.153187
 C        -1.607118        -0.760018         0.015981
 H        -4.167526        -1.448380         0.309288
 H        -2.190440        -0.600864         3.308446
 H        -0.822074        -1.270036         2.317893
 H        -0.901213         1.511028         2.324639
 H        -3.809160         1.425064         1.150276
 H        -2.528482         1.614641        -1.198270
 H        -2.034635         2.614868         0.075883
 H         0.834244         1.187390         0.492997
 H        -1.953758        -1.021094        -0.988702
 H        -0.892124        -1.547568         0.341718
