19
Iteration:  2479
 O        -3.884635        -1.300626         0.877299
 C        -2.638133        -0.691934         1.196115
 C        -1.926080        -0.553350         2.626683
 C        -1.470981         0.829153         1.967389
 C        -2.774467         0.933909         1.206799
 C        -2.087055         1.413536        -0.126316
 C        -0.987537         0.447615         0.262764
 O         0.354263         0.617938        -0.243925
 C        -1.416268        -0.967258         0.242832
 H        -4.052650        -1.121518        -0.030836
 H        -2.682216        -0.400501         3.412252
 H        -1.212930        -1.353980         2.933931
 H        -0.959486         1.746730         2.396727
 H        -3.731473         1.493763         1.558562
 H        -2.698835         1.233688        -1.046187
 H        -1.516706         2.395548         0.030086
 H         0.721902         1.531935        -0.206450
 H        -1.825882        -1.349266        -0.709231
 H        -0.703292        -1.680854         0.678662
