19
Iteration:  3134charge 0 multiplicity 1
 O        -3.843637        -1.493405         0.970343
 C        -2.785426        -0.628177         1.162441
 C        -2.036728        -0.543996         2.464199
 C        -1.361150         0.746151         1.813479
 C        -2.719951         1.014474         1.165456
 C        -2.037754         1.452282        -0.144249
 C        -0.909672         0.477969         0.289875
 O         0.455117         0.698568        -0.071612
 C        -1.543126        -0.933035         0.177995
 H        -4.431625        -1.523569         1.717643
 H        -2.619912        -0.087208         3.271388
 H        -1.387918        -1.367372         2.798900
 H        -0.840309         1.417062         2.475248
 H        -3.480569         1.499383         1.702685
 H        -2.661948         1.339804        -1.072139
 H        -1.829393         2.565632         0.038629
 H         0.381445         1.500452        -0.587939
 H        -1.866240        -1.312437        -0.809643
 H        -1.065181        -1.829410         0.597959
