19
Iteration:  4032
 O        -3.927626        -1.446774         1.067804
 C        -2.825285        -0.652868         1.145505
 C        -1.904070        -0.600624         2.381771
 C        -1.375526         0.716599         1.800169
 C        -2.748305         0.998854         1.117461
 C        -2.062969         1.544148        -0.196254
 C        -0.912591         0.435504         0.371677
 O         0.538788         0.741070         0.128420
 C        -1.689620        -0.839760        -0.046234
 H        -3.813352        -1.968538         1.846468
 H        -2.613803        -0.476571         3.223836
 H        -1.313383        -1.536332         2.430322
 H        -0.816841         1.515155         2.302923
 H        -3.520026         1.480556         1.756503
 H        -2.465064         1.468628        -1.235397
 H        -1.667051         2.572473        -0.114230
 H         1.102688         0.119169         0.567834
 H        -2.124396        -0.797961        -1.098863
 H        -1.081132        -1.781935        -0.037458
