19
Iteration:  3950
 O        -3.888860        -1.424907         0.786262
 C        -2.770502        -0.641975         1.205088
 C        -2.054788        -0.497692         2.629206
 C        -1.300757         0.688866         1.817991
 C        -2.676307         0.890247         1.179724
 C        -2.070276         1.401034        -0.080981
 C        -0.814669         0.518767         0.384470
 O         0.400255         0.816597        -0.179069
 C        -1.557150        -0.864713         0.159434
 H        -4.672052        -1.145930         1.342199
 H        -2.804902        -0.328884         3.402407
 H        -1.695612        -1.488239         2.900977
 H        -0.876969         1.497264         2.439893
 H        -3.463717         1.381017         1.743903
 H        -2.487173         0.988585        -0.977132
 H        -1.758992         2.417753        -0.142496
 H         0.882431        -0.072235        -0.077170
 H        -2.038438        -1.160764        -0.784410
 H        -1.077302        -1.761055         0.554104
