19
Iteration:  1758
 O        -3.878659        -1.499134         1.377211
 C        -2.765680        -0.642441         1.061359
 C        -1.812743        -0.629187         2.322738
 C        -1.434340         0.805830         1.765028
 C        -2.788804         1.060589         1.096811
 C        -1.966517         1.528757        -0.267270
 C        -0.970780         0.422923         0.317628
 O         0.441521         0.711570         0.182396
 C        -1.685497        -0.919350        -0.104831
 H        -3.820849        -2.201062         0.651485
 H        -2.407096        -0.382088         3.192196
 H        -1.113575        -1.445339         2.612740
 H        -0.663141         1.429984         2.366435
 H        -3.726047         1.480341         1.674851
 H        -2.512495         1.218564        -1.174396
 H        -1.668844         2.635681        -0.252246
 H         0.570056         1.638600         0.359222
 H        -2.042228        -0.871721        -1.151483
 H        -1.281615        -1.910016         0.154486
