19
Iteration:  1297charge 0 multiplicity 1
 O        -3.760107        -1.432889         0.752345
 C        -2.667006        -0.557246         1.177699
 C        -1.991014        -0.661096         2.571232
 C        -1.315688         0.736706         1.978444
 C        -2.725840         0.998898         1.341347
 C        -2.132672         1.423690        -0.106004
 C        -0.951340         0.503189         0.327834
 O         0.289064         0.720812        -0.359156
 C        -1.493175        -0.887193         0.380003
 H        -4.577624        -0.860855         0.568694
 H        -2.741007        -0.325081         3.310954
 H        -1.389728        -1.519284         2.913227
 H        -0.613909         1.534760         2.493793
 H        -3.626960         1.503940         1.821127
 H        -2.743836         1.317279        -1.010684
 H        -1.812817         2.419128         0.065383
 H         0.183999         0.180034        -1.143581
 H        -1.691930        -1.389431        -0.576465
 H        -0.872952        -1.629591         0.880831
