19
Iteration:  3102
 O        -3.869013        -1.337595         1.082230
 C        -2.635300        -0.678234         1.148809
 C        -1.766690        -0.571618         2.413986
 C        -1.528482         0.823054         1.874449
 C        -2.802962         0.815702         1.057446
 C        -2.040580         1.380393        -0.214986
 C        -0.933616         0.601251         0.400136
 O         0.348723         0.529598         0.025905
 C        -1.542484        -0.843235         0.043591
 H        -4.698969        -0.753846         0.981111
 H        -2.125939        -0.466871         3.430793
 H        -0.805472        -1.070327         2.498322
 H        -1.156468         1.584641         2.519376
 H        -3.735673         1.173936         1.260241
 H        -2.357041         1.353008        -1.302334
 H        -2.023860         2.480906         0.172514
 H         0.663735         1.477928         0.278617
 H        -2.158976        -0.899028        -0.825959
 H        -1.023622        -1.773756         0.248012
