19
Iteration:  3657
 O        -3.937985        -1.229618         1.016408
 C        -2.639779        -0.685180         1.101400
 C        -1.965541        -0.544912         2.444417
 C        -1.453157         0.794924         1.843803
 C        -2.783946         0.830275         1.095777
 C        -2.036357         1.422117        -0.153356
 C        -0.946080         0.487215         0.360982
 O         0.483608         0.726079         0.002375
 C        -1.497794        -0.937828         0.096899
 H        -4.021654        -1.934782         1.721924
 H        -2.689830        -0.278277         3.274413
 H        -1.453933        -1.458778         2.793231
 H        -1.137132         1.663000         2.590536
 H        -3.637792         1.343864         1.576459
 H        -2.586683         1.235944        -1.086311
 H        -1.812600         2.509180         0.167632
 H         0.628577         0.125500        -0.807207
 H        -1.943967        -1.253517        -0.842347
 H        -0.949134        -1.763364         0.498375
