19
Iteration:   482charge 0 multiplicity 1
 O        -3.946724        -1.331017         0.902629
 C        -2.698842        -0.669031         1.212156
 C        -1.921593        -0.586887         2.508499
 C        -1.259899         0.712247         1.986030
 C        -2.678691         0.943083         1.194990
 C        -2.065381         1.403662        -0.073010
 C        -0.945015         0.498779         0.310623
 O         0.266691         0.800207        -0.224904
 C        -1.506960        -0.957456         0.235982
 H        -3.566488        -2.048723         0.402309
 H        -2.750528        -0.358925         3.261661
 H        -1.345163        -1.467612         2.849006
 H        -0.704765         1.342487         2.776396
 H        -3.562584         1.529463         1.675357
 H        -2.659457         1.151105        -0.969126
 H        -1.855105         2.446545        -0.111704
 H         0.016200         1.319247        -1.048302
 H        -1.684660        -1.213364        -0.840653
 H        -0.844277        -1.813868         0.330433
