19
Iteration:  1721
 O        -3.835140        -1.513847         1.120395
 C        -2.631416        -0.630657         1.153184
 C        -1.744029        -0.428053         2.453266
 C        -1.516413         0.890606         1.822307
 C        -2.914723         0.908110         1.052710
 C        -2.081126         1.586573        -0.155173
 C        -0.959733         0.629011         0.389348
 O         0.430394         0.323178         0.003594
 C        -1.646541        -0.805698         0.015765
 H        -3.507657        -2.437172         0.860243
 H        -2.461582        -0.382727         3.306374
 H        -0.978042        -1.210623         2.546452
 H        -1.129536         1.743650         2.279647
 H        -3.792649         1.229828         1.526308
 H        -2.502390         1.607132        -1.207536
 H        -1.925048         2.613718         0.194423
 H         0.942225         1.108899         0.297733
 H        -2.081965        -0.781124        -1.031643
 H        -0.913761        -1.729371         0.141989
