19
Iteration:  3952
 O        -3.892029        -1.454054         0.778792
 C        -2.781162        -0.636558         1.208779
 C        -2.055893        -0.508172         2.624086
 C        -1.304091         0.692413         1.823279
 C        -2.682376         0.910297         1.185601
 C        -2.075866         1.405058        -0.082610
 C        -0.827263         0.525959         0.367319
 O         0.430012         0.806488        -0.184148
 C        -1.566077        -0.867133         0.181129
 H        -4.631507        -1.127461         1.292220
 H        -2.813105        -0.233453         3.432971
 H        -1.626588        -1.456361         2.928219
 H        -0.792942         1.485036         2.486680
 H        -3.478517         1.383252         1.776897
 H        -2.482748         1.049486        -0.978771
 H        -1.788874         2.478866        -0.125903
 H         0.865073        -0.051492        -0.125853
 H        -2.014016        -1.066225        -0.783700
 H        -1.076263        -1.836685         0.547953
