19
Iteration:   367
 O        -3.888748        -1.492412         1.320874
 C        -2.703865        -0.683351         1.105944
 C        -1.810148        -0.615931         2.322181
 C        -1.375634         0.746522         1.776036
 C        -2.796318         0.978270         1.135539
 C        -2.025757         1.471401        -0.128432
 C        -0.992264         0.507730         0.272774
 O         0.440768         0.678456         0.137638
 C        -1.716789        -0.778637        -0.108905
 H        -4.231855        -1.914504         0.532340
 H        -2.347998        -0.688757         3.254369
 H        -1.000709        -1.373037         2.252646
 H        -0.711374         1.356536         2.371906
 H        -3.594222         1.493509         1.594294
 H        -2.592303         1.526446        -1.027368
 H        -1.588011         2.467159         0.096742
 H         0.714208         1.628033         0.065611
 H        -2.120217        -0.806040        -1.117128
 H        -1.063996        -1.664175        -0.174056
