19
Iteration:  4962charge 0 multiplicity 1
 O        -3.860208        -1.462701         1.068235
 C        -2.686379        -0.592164         1.016942
 C        -1.918804        -0.558691         2.412389
 C        -1.481895         0.719928         1.890992
 C        -2.856862         1.017727         1.039449
 C        -1.918470         1.543008        -0.073276
 C        -0.918967         0.462185         0.333605
 O         0.390859         0.545519         0.009196
 C        -1.591697        -0.847741         0.058068
 H        -4.004307        -1.425433         2.052549
 H        -2.480942        -0.635680         3.332018
 H        -1.142968        -1.381950         2.428670
 H        -0.926189         1.651067         2.298342
 H        -3.819335         1.405232         1.400273
 H        -2.555131         1.519608        -1.090685
 H        -1.536689         2.508760         0.349827
 H         0.678775         1.456407         0.209102
 H        -1.880175        -1.013925        -0.995853
 H        -1.098732        -1.829422         0.303179
