19
Iteration:  3077
 O        -3.851867        -1.487301         1.193322
 C        -2.694590        -0.678424         1.123544
 C        -1.795994        -0.576917         2.407596
 C        -1.458051         0.837586         1.788601
 C        -2.853793         0.987491         1.095298
 C        -2.113558         1.537241        -0.197904
 C        -0.954928         0.528233         0.311504
 O         0.484582         0.531884         0.075412
 C        -1.577613        -0.823993         0.004414
 H        -4.491814        -1.415363         0.432872
 H        -2.350115        -0.482975         3.353555
 H        -0.955699        -1.301361         2.589147
 H        -0.866909         1.647306         2.307213
 H        -3.849635         1.377006         1.491123
 H        -2.747970         1.194172        -1.042461
 H        -1.888469         2.630020        -0.286436
 H         0.610237         0.958311         0.945673
 H        -1.972768        -0.852058        -1.090279
 H        -0.973553        -1.691438         0.279600
