19
Iteration:  3231charge 0 multiplicity 1
 O        -3.908378        -1.365872         1.185020
 C        -2.751362        -0.584425         1.115286
 C        -1.844684        -0.541535         2.414559
 C        -1.369114         0.757850         1.833795
 C        -2.744958         0.964800         1.130057
 C        -2.077275         1.341248        -0.247864
 C        -0.879135         0.421018         0.291059
 O         0.436062         0.827479         0.241623
 C        -1.749099        -0.957912        -0.050478
 H        -3.827496        -2.110991         0.617700
 H        -2.579693        -0.349932         3.185971
 H        -1.080098        -1.384357         2.543370
 H        -0.595801         1.311772         2.286112
 H        -3.587932         1.525883         1.401639
 H        -2.423178         1.024844        -1.198023
 H        -1.881596         2.395139        -0.163666
 H         0.881136         0.663607        -0.605185
 H        -1.902485        -0.826115        -1.204025
 H        -1.214373        -1.918133         0.165327
