19
Iteration:  3459charge 0 multiplicity 1
 O        -3.859526        -1.409499         1.063575
 C        -2.754108        -0.634050         1.221390
 C        -2.092858        -0.589095         2.587255
 C        -1.565767         0.810091         1.983924
 C        -2.740568         0.919415         1.063384
 C        -1.909193         1.453038        -0.152018
 C        -0.862406         0.498294         0.318850
 O         0.427187         0.692070        -0.277061
 C        -1.496001        -0.826932         0.205049
 H        -3.920790        -1.758887         0.192131
 H        -2.839432        -0.423138         3.341277
 H        -1.252471        -1.268222         2.758409
 H        -1.191901         1.589868         2.653633
 H        -3.713240         1.294738         1.228341
 H        -2.339650         1.364141        -1.183646
 H        -1.582217         2.506796        -0.007084
 H         0.672554        -0.196895        -0.456433
 H        -1.815649        -1.143965        -0.755868
 H        -0.800447        -1.528161         0.584639
