19
Iteration:  4290charge 0 multiplicity 1
 O        -3.929999        -1.373588         0.977326
 C        -2.719271        -0.687595         1.172241
 C        -1.964814        -0.525130         2.460347
 C        -1.355889         0.768952         1.881450
 C        -2.761444         0.974447         1.122111
 C        -2.022326         1.391221        -0.089036
 C        -0.913037         0.490775         0.318634
 O         0.443390         0.604996        -0.041974
 C        -1.600549        -0.871084         0.138996
 H        -4.000159        -1.620155         0.061920
 H        -2.626046        -0.304042         3.314200
 H        -1.304136        -1.320059         2.828568
 H        -0.976745         1.638784         2.491136
 H        -3.638694         1.521284         1.453974
 H        -2.368399         1.105373        -1.071519
 H        -1.740182         2.467094         0.012794
 H         0.668520         1.528766         0.135975
 H        -1.900622        -0.949954        -0.873391
 H        -1.031172        -1.756036         0.297573
