19
Iteration:  4931
 O        -4.011310        -1.444363         0.914194
 C        -2.729871        -0.702620         1.114329
 C        -1.951207        -0.523574         2.544161
 C        -1.311936         0.724571         1.827310
 C        -2.697300         0.943441         1.160923
 C        -2.047885         1.476191        -0.189855
 C        -0.958889         0.557123         0.323434
 O         0.485475         0.652781        -0.042152
 C        -1.566416        -0.804364         0.138991
 H        -4.029888        -2.114646         1.616619
 H        -2.529796        -0.279759         3.410832
 H        -1.311280        -1.357567         2.835807
 H        -0.988110         1.675029         2.246652
 H        -3.542736         1.473132         1.714885
 H        -2.711932         1.199463        -1.035933
 H        -1.863037         2.547296        -0.219769
 H         1.036131         0.608274         0.784733
 H        -2.161437        -0.827683        -0.821240
 H        -1.072614        -1.786918         0.141793
