19
Iteration:  4101charge 0 multiplicity 1
 O        -3.950766        -1.291468         0.784982
 C        -2.650890        -0.637811         1.189356
 C        -1.984443        -0.611539         2.603190
 C        -1.335324         0.744579         2.001363
 C        -2.727526         0.947837         1.192350
 C        -2.034654         1.438699        -0.083336
 C        -0.918534         0.480153         0.377580
 O         0.305249         0.702921        -0.200083
 C        -1.551126        -0.862009         0.160728
 H        -3.790399        -2.010392         0.142002
 H        -2.668513        -0.387369         3.434835
 H        -1.273700        -1.483621         2.666462
 H        -0.789036         1.476858         2.579475
 H        -3.514593         1.328731         1.824307
 H        -2.538185         1.285259        -1.117647
 H        -1.757195         2.515199        -0.064699
 H         0.892409        -0.078676        -0.072104
 H        -1.675664        -1.042699        -0.959733
 H        -0.887044        -1.653537         0.579940
