19
Iteration:   593
 O        -3.783119        -1.589290         0.962649
 C        -2.669684        -0.681781         1.192311
 C        -1.879358        -0.505185         2.543880
 C        -1.357878         0.699319         1.835345
 C        -2.768876         1.001871         1.101978
 C        -2.106688         1.571762        -0.101551
 C        -0.963379         0.559562         0.320816
 O         0.358541         0.618634        -0.073052
 C        -1.599979        -0.817641         0.093841
 H        -4.458239        -1.275808         1.642887
 H        -2.532238        -0.167943         3.381842
 H        -1.312777        -1.350423         2.999455
 H        -1.007727         1.501226         2.484987
 H        -3.744084         1.436437         1.649952
 H        -2.518432         1.526299        -1.094068
 H        -1.691948         2.600666         0.116843
 H         0.307407         0.524483        -1.024209
 H        -1.930599        -1.028477        -0.988320
 H        -0.912199        -1.659810         0.424066
