19
Iteration:  2476charge 0 multiplicity 1
 O        -3.887969        -1.282093         0.888652
 C        -2.642801        -0.694928         1.218628
 C        -1.906239        -0.548342         2.639655
 C        -1.475425         0.838805         1.975347
 C        -2.798142         0.921023         1.178672
 C        -2.108114         1.451523        -0.130580
 C        -0.970320         0.420089         0.278730
 O         0.369927         0.609145        -0.234958
 C        -1.424758        -0.985534         0.218366
 H        -4.045210        -1.085053        -0.091343
 H        -2.624002        -0.509721         3.465737
 H        -1.171479        -1.282427         2.867439
 H        -1.007317         1.683859         2.382200
 H        -3.752895         1.316776         1.470683
 H        -2.679217         1.311918        -1.039192
 H        -1.620421         2.413208        -0.056727
 H         0.756228         1.514598        -0.208106
 H        -1.772159        -1.280567        -0.746256
 H        -0.639629        -1.633992         0.620112
