19
Iteration:  1588
 O        -3.697531        -1.726329         1.168940
 C        -2.726681        -0.580735         1.120243
 C        -1.916076        -0.433220         2.398852
 C        -1.454121         0.899614         1.763192
 C        -2.841927         1.086623         1.012389
 C        -2.029257         1.550885        -0.230791
 C        -0.995334         0.560953         0.360505
 O         0.419101         0.434850         0.116472
 C        -1.690894        -0.718020         0.088842
 H        -3.231555        -2.401280         1.773382
 H        -2.555980        -0.362818         3.310502
 H        -1.069171        -1.128012         2.633848
 H        -1.069380         1.858060         2.234597
 H        -3.714478         1.656514         1.462579
 H        -2.600379         1.472241        -1.185943
 H        -1.546122         2.562130        -0.285128
 H         0.692720        -0.416833        -0.259279
 H        -2.256834        -0.768107        -0.904790
 H        -1.094026        -1.685869         0.171689
