19
Iteration:   190charge 0 multiplicity 1
 O        -3.624916        -1.697898         1.176975
 C        -2.748789        -0.638825         1.111583
 C        -1.900196        -0.445055         2.426826
 C        -1.497165         0.853156         1.871032
 C        -2.788563         1.006740         1.090854
 C        -2.060332         1.671366        -0.138510
 C        -0.958263         0.587502         0.344258
 O         0.376055         0.391043        -0.104785
 C        -1.689609        -0.775465         0.060262
 H        -4.249782        -1.731473         0.442433
 H        -2.569669        -0.225673         3.291228
 H        -1.241866        -1.251119         2.765834
 H        -0.835154         1.651472         2.354004
 H        -3.726239         1.483181         1.621310
 H        -2.335584         1.508059        -1.146120
 H        -1.718294         2.754226        -0.018474
 H         0.957345         0.738166         0.613040
 H        -2.157210        -0.898509        -0.931844
 H        -1.173656        -1.726999         0.328964
