19
Iteration:  4504charge 0 multiplicity 1
 O        -3.855722        -1.490219         1.219487
 C        -2.739298        -0.676496         1.024152
 C        -1.863839        -0.461315         2.448918
 C        -1.436345         0.833214         1.828865
 C        -2.724007         1.016610         1.021748
 C        -1.964199         1.506487        -0.183623
 C        -0.945054         0.486773         0.398013
 O         0.382056         0.560424         0.243359
 C        -1.656111        -0.906309        -0.093998
 H        -4.347115        -1.270408         0.370080
 H        -2.635547        -0.493130         3.249079
 H        -0.954647        -1.182634         2.646447
 H        -1.053764         1.759733         2.281186
 H        -3.594646         1.437872         1.415034
 H        -2.570081         1.252224        -1.140816
 H        -1.678479         2.516239         0.030528
 H         0.476521         0.365422        -0.784067
 H        -1.852271        -0.803559        -1.151140
 H        -1.014057        -1.778818         0.042742
