19
Iteration:  4775
 O        -3.924986        -1.402007         1.189611
 C        -2.735755        -0.635733         1.139014
 C        -1.944336        -0.572190         2.470579
 C        -1.421011         0.760567         1.824710
 C        -2.767481         0.942826         1.037792
 C        -1.938490         1.417540        -0.188228
 C        -0.924008         0.535493         0.357506
 O         0.396546         0.694869         0.107032
 C        -1.540032        -0.912412         0.008317
 H        -4.427478        -1.556939         0.392388
 H        -2.703459        -0.405205         3.208552
 H        -1.210900        -1.304552         2.753736
 H        -0.913239         1.576837         2.412241
 H        -3.547752         1.554955         1.366645
 H        -2.151101         1.204372        -1.269167
 H        -1.748600         2.494346        -0.064120
 H         0.715822         0.529566        -0.759568
 H        -2.051622        -0.780151        -0.992703
 H        -1.004359        -1.912185         0.099155
