19
Iteration:   657charge 0 multiplicity 1
 O        -3.973085        -1.247461         1.033349
 C        -2.627266        -0.687578         1.197439
 C        -1.838618        -0.616436         2.507935
 C        -1.336992         0.725416         1.788638
 C        -2.738958         0.825053         1.150236
 C        -2.170594         1.259060        -0.213240
 C        -0.937471         0.510758         0.319417
 O         0.382868         0.900995         0.018923
 C        -1.507914        -1.010936         0.124161
 H        -4.474718        -0.485363         0.830299
 H        -2.425837        -0.341241         3.427315
 H        -1.088947        -1.445259         2.667288
 H        -1.045293         1.633178         2.329503
 H        -3.642599         1.255080         1.722341
 H        -2.686744         0.995780        -1.189325
 H        -1.846517         2.338298        -0.201865
 H         0.575190         0.898469        -0.927700
 H        -1.988895        -1.139367        -0.905807
 H        -0.787812        -1.709100         0.594234
