19
Iteration:  2228charge 0 multiplicity 1
 O        -3.746879        -1.680453         1.235348
 C        -2.722611        -0.644969         1.126478
 C        -1.940082        -0.346536         2.507197
 C        -1.378861         0.782687         1.731402
 C        -2.794814         1.095421         1.082209
 C        -2.003752         1.547150        -0.257255
 C        -0.981977         0.535873         0.315151
 O         0.347825         0.576536         0.100023
 C        -1.667816        -0.843583        -0.009315
 H        -3.558127        -2.106272         0.337224
 H        -2.666363         0.020179         3.266847
 H        -1.480036        -1.283850         2.912959
 H        -0.705888         1.492824         2.094310
 H        -3.659162         1.534571         1.456189
 H        -2.241721         1.166343        -1.242679
 H        -1.734289         2.626403        -0.160002
 H         0.793132        -0.082587         0.673417
 H        -2.140802        -0.889832        -1.044345
 H        -1.095992        -1.808445         0.071455
