19
Iteration:  1292charge 0 multiplicity 1
 O        -3.743472        -1.448928         0.755902
 C        -2.695493        -0.544524         1.178019
 C        -1.938187        -0.626058         2.617412
 C        -1.310446         0.739894         1.976284
 C        -2.748597         0.974963         1.340796
 C        -2.139661         1.469182        -0.122351
 C        -0.970880         0.525914         0.343954
 O         0.296354         0.666174        -0.328262
 C        -1.501416        -0.875864         0.293565
 H        -4.552132        -0.963185         0.629077
 H        -2.713562        -0.390791         3.409938
 H        -1.344422        -1.539576         2.871064
 H        -0.721200         1.397145         2.552785
 H        -3.614562         1.496067         1.680587
 H        -2.722741         1.359891        -1.082222
 H        -1.894712         2.577067         0.100872
 H         0.249823         0.032912        -1.085407
 H        -1.765549        -1.314231        -0.709724
 H        -0.854480        -1.572281         0.920371
