19
Iteration:  1730charge 0 multiplicity 1
 O        -3.818156        -1.524890         1.228218
 C        -2.714555        -0.664692         1.140818
 C        -1.790917        -0.551188         2.354453
 C        -1.487422         0.940850         1.787704
 C        -2.846915         0.912066         1.003528
 C        -2.062884         1.597185        -0.186294
 C        -0.954268         0.556207         0.336051
 O         0.438901         0.382267         0.095161
 C        -1.674097        -0.715717         0.053442
 H        -3.481046        -2.420250         0.893656
 H        -2.254555        -0.483311         3.358781
 H        -0.928311        -1.225605         2.408951
 H        -1.054624         1.703520         2.393764
 H        -3.792136         1.265248         1.304200
 H        -2.446158         1.517611        -1.207623
 H        -1.984151         2.635735         0.089983
 H         0.929212         1.197266         0.312878
 H        -2.189245        -0.636785        -0.917709
 H        -1.112217        -1.658007        -0.007688
