19
Iteration:  2715
 O        -3.952468        -1.336296         1.197422
 C        -2.664533        -0.691987         1.098712
 C        -1.869584        -0.664858         2.409424
 C        -1.537192         0.704708         1.924392
 C        -2.792981         0.941209         0.999065
 C        -2.031971         1.595245        -0.161004
 C        -0.944770         0.540569         0.258929
 O         0.460991         0.666347        -0.038007
 C        -1.528492        -0.894630         0.060047
 H        -3.790032        -2.265388         1.556856
 H        -2.608215        -0.812177         3.251087
 H        -1.046799        -1.400832         2.531736
 H        -0.851103         1.384803         2.442711
 H        -3.705506         1.310383         1.400704
 H        -2.616236         1.344899        -1.089370
 H        -1.763203         2.647220         0.106708
 H         0.780580         1.292311         0.675014
 H        -2.021128        -0.833666        -0.922854
 H        -0.835125        -1.787297         0.089298
