19
Iteration:  1727charge 0 multiplicity 1
 O        -3.826866        -1.529011         1.193860
 C        -2.685054        -0.648823         1.147455
 C        -1.771839        -0.517709         2.385716
 C        -1.502237         0.936155         1.788877
 C        -2.864114         0.902095         1.011873
 C        -2.062059         1.595335        -0.180822
 C        -0.961332         0.580797         0.361239
 O         0.441059         0.355013         0.064147
 C        -1.660060        -0.743735         0.041905
 H        -3.499503        -2.369998         0.899671
 H        -2.314711        -0.433645         3.323760
 H        -0.947338        -1.243750         2.434621
 H        -1.026512         1.774726         2.429023
 H        -3.888219         1.227648         1.404470
 H        -2.482751         1.580705        -1.161873
 H        -2.003838         2.656284         0.130245
 H         0.927510         1.182787         0.318646
 H        -2.129398        -0.698528        -0.915085
 H        -1.134770        -1.633182         0.010505
