19
Iteration:   468charge 0 multiplicity 1
 O        -3.851248        -1.378507         0.870083
 C        -2.694178        -0.610183         1.143663
 C        -2.028299        -0.569843         2.594416
 C        -1.316359         0.652316         1.927837
 C        -2.673226         1.003748         1.299525
 C        -2.129455         1.438207        -0.039778
 C        -0.906041         0.427641         0.390490
 O         0.297271         0.774545        -0.353776
 C        -1.487981        -0.957872         0.234324
 H        -3.804029        -1.959517         0.027039
 H        -2.616298        -0.124818         3.436456
 H        -1.439511        -1.451109         2.944455
 H        -0.673506         1.410706         2.355710
 H        -3.471646         1.324123         1.830695
 H        -2.686763         1.177419        -0.996469
 H        -1.761775         2.453219        -0.068757
 H         0.177564         1.630480        -0.787661
 H        -1.878727        -1.250869        -0.825375
 H        -0.906538        -1.634198         0.883757
