19
Iteration:  2431charge 0 multiplicity 1
 O        -3.849346        -1.592679         1.253243
 C        -2.741045        -0.609979         1.111715
 C        -1.954194        -0.552705         2.411236
 C        -1.423177         0.753808         1.812512
 C        -2.749016         1.099939         1.097394
 C        -2.021997         1.534365        -0.233206
 C        -0.951943         0.473083         0.309538
 O         0.447342         0.574443         0.096765
 C        -1.598847        -0.822821        -0.021180
 H        -4.324871        -1.565724         0.354697
 H        -2.473432        -0.379005         3.356315
 H        -1.265981        -1.369398         2.493852
 H        -0.734297         1.344160         2.362973
 H        -3.578245         1.565731         1.546509
 H        -2.438357         1.231117        -1.182845
 H        -1.820584         2.586869        -0.201304
 H         0.611065         1.533113         0.208223
 H        -1.967702        -0.941952        -1.027772
 H        -1.042175        -1.712393         0.316039
