19
Iteration:  2317charge 0 multiplicity 1
 O        -3.911734        -1.385261         1.031518
 C        -2.705695        -0.636791         1.206200
 C        -2.067215        -0.453335         2.587056
 C        -1.292209         0.651965         1.841541
 C        -2.690859         0.883556         1.064316
 C        -2.041902         1.246000        -0.198768
 C        -0.919855         0.432152         0.284208
 O         0.436933         0.964814        -0.073746
 C        -1.581648        -0.973119         0.234334
 H        -4.446710        -1.221138         0.198390
 H        -2.758714        -0.026519         3.347457
 H        -1.473954        -1.373694         2.916217
 H        -0.839653         1.505649         2.458840
 H        -3.564126         1.390247         1.615766
 H        -2.450499         1.066363        -1.216833
 H        -1.658814         2.295770        -0.042213
 H         0.631673         0.942323        -1.052162
 H        -1.936620        -1.291111        -0.807850
 H        -1.059846        -1.842011         0.709187
