19
Iteration:  2380
 O        -3.829649        -1.541055         1.198698
 C        -2.697681        -0.712879         1.113202
 C        -1.892032        -0.510570         2.536586
 C        -1.487002         0.821201         1.815530
 C        -2.826601         0.981121         0.947671
 C        -2.006190         1.552603        -0.140591
 C        -0.917986         0.595116         0.415348
 O         0.414125         0.509057        -0.097862
 C        -1.646524        -0.818290         0.068211
 H        -3.955135        -1.811887         0.266520
 H        -2.564253        -0.329353         3.388545
 H        -1.094952        -1.203856         2.856435
 H        -1.255039         1.673722         2.436697
 H        -3.662500         1.499533         1.395188
 H        -2.360894         1.537897        -1.192005
 H        -1.755100         2.641029         0.010599
 H         1.015429         0.332684         0.677334
 H        -1.903471        -0.624528        -0.968608
 H        -0.881327        -1.592865         0.118300
