19
Iteration:  1412
 O        -3.616489        -1.718854         1.172404
 C        -2.673284        -0.669349         1.133168
 C        -1.952495        -0.398549         2.478483
 C        -1.538055         0.891684         1.790322
 C        -2.843347         1.037856         1.010173
 C        -1.946565         1.605485        -0.139017
 C        -1.005649         0.584439         0.290850
 O         0.421754         0.397813         0.029709
 C        -1.711919        -0.685601        -0.014339
 H        -3.788952        -2.058352         2.116675
 H        -2.654540        -0.105124         3.265316
 H        -1.228261        -1.006719         3.006954
 H        -0.935745         1.766375         2.233401
 H        -3.949327         1.190986         1.180236
 H        -2.470240         1.772626        -1.071880
 H        -1.634030         2.575862         0.364596
 H         0.622292        -0.514808        -0.158550
 H        -2.341943        -0.696759        -0.933473
 H        -1.190141        -1.667203        -0.163401
