19
Iteration:  3976
 O        -3.758298        -1.525578         0.870110
 C        -2.743682        -0.640237         1.165867
 C        -1.932137        -0.548326         2.502549
 C        -1.461579         0.764063         1.940267
 C        -2.759484         1.074046         1.156848
 C        -2.008841         1.554463        -0.076153
 C        -0.942459         0.478547         0.345375
 O         0.392329         0.642885        -0.110781
 C        -1.605701        -0.875619         0.126029
 H        -4.658942        -1.174778         1.129057
 H        -2.687289        -0.488103         3.320248
 H        -1.282513        -1.424957         2.674054
 H        -0.979717         1.546510         2.586609
 H        -3.655610         1.615339         1.534020
 H        -2.494141         1.488918        -1.052455
 H        -1.492306         2.547901         0.031158
 H         0.725872        -0.247490        -0.449307
 H        -2.007306        -1.268633        -0.805795
 H        -0.911781        -1.634457         0.618328
