19
Iteration:  2208
 O        -3.788037        -1.548585         1.258778
 C        -2.734987        -0.655766         1.138367
 C        -1.989489        -0.487989         2.454752
 C        -1.527617         0.838136         1.839045
 C        -2.767109         1.008993         0.976353
 C        -1.956918         1.473086        -0.210804
 C        -0.935834         0.492899         0.285102
 O         0.453440         0.698749        -0.073480
 C        -1.630716        -0.870976         0.175248
 H        -3.934113        -1.939658         0.360483
 H        -2.724600        -0.450929         3.267684
 H        -1.332820        -1.335607         2.745104
 H        -1.185843         1.661517         2.504092
 H        -3.615096         1.569424         1.390302
 H        -2.457478         1.390859        -1.160686
 H        -1.623285         2.468889         0.083312
 H         1.052969        -0.032491         0.044812
 H        -1.975821        -1.004594        -0.882983
 H        -1.087633        -1.786756         0.462678
