19
Iteration:   727
 O        -3.554336        -1.741083         1.121620
 C        -2.731034        -0.609475         1.125919
 C        -1.910703        -0.396995         2.435826
 C        -1.521090         0.950916         1.918295
 C        -2.832192         1.054045         1.113606
 C        -2.041159         1.613628        -0.061937
 C        -0.983035         0.539895         0.262513
 O         0.455609         0.391463         0.017847
 C        -1.748989        -0.786837        -0.060083
 H        -4.471638        -1.661193         1.085433
 H        -2.499748        -0.225879         3.364642
 H        -1.281935        -1.330493         2.678511
 H        -1.099822         1.917504         2.298678
 H        -3.762543         1.549180         1.469720
 H        -2.445798         1.777560        -1.026127
 H        -1.562891         2.538990         0.281481
 H         0.536732        -0.461056        -0.436647
 H        -2.205096        -0.654976        -1.034780
 H        -1.147600        -1.729691        -0.045173
