19
Iteration:   248
 O        -3.900152        -1.404095         1.281303
 C        -2.718054        -0.653443         1.104301
 C        -1.758733        -0.643709         2.380809
 C        -1.412228         0.788098         1.784719
 C        -2.830354         0.885441         1.075444
 C        -2.129841         1.473602        -0.099735
 C        -0.942919         0.533116         0.329213
 O         0.441515         0.638783         0.083589
 C        -1.610680        -0.802397        -0.045431
 H        -4.202994        -1.839769         0.452332
 H        -2.320894        -0.538633         3.325303
 H        -1.037556        -1.519215         2.340897
 H        -0.855705         1.614518         2.265235
 H        -3.647394         1.366507         1.464500
 H        -2.432799         1.359966        -1.209773
 H        -1.742470         2.456656         0.107321
 H         0.742300         1.484263        -0.243927
 H        -2.051011        -0.830127        -1.102431
 H        -1.032871        -1.761378         0.098676
