19
Iteration:  1171
 O        -3.876104        -1.296472         0.820669
 C        -2.660914        -0.662307         1.146777
 C        -1.791595        -0.591456         2.558975
 C        -1.376862         0.719228         1.968709
 C        -2.723082         0.914485         1.267022
 C        -2.169043         1.506396         0.013057
 C        -0.945086         0.565677         0.327684
 O         0.263456         0.542798        -0.204642
 C        -1.545837        -0.841688         0.123938
 H        -3.663466        -2.205985         0.589340
 H        -2.498475        -0.450618         3.406295
 H        -1.060582        -1.428014         2.747067
 H        -0.862200         1.449631         2.473010
 H        -3.671703         1.184803         1.711895
 H        -2.586403         1.213162        -0.987277
 H        -1.970036         2.638036         0.055774
 H         0.646030         1.393159        -0.525021
 H        -1.971192        -0.931455        -0.908685
 H        -0.767401        -1.607693         0.374230
