19
Iteration:  2770charge 0 multiplicity 1
 O        -3.855642        -1.491662         0.981370
 C        -2.731599        -0.650765         1.186653
 C        -1.856741        -0.612247         2.494431
 C        -1.359442         0.712546         1.794931
 C        -2.744198         1.065306         1.177793
 C        -2.079077         1.606483        -0.172668
 C        -1.074506         0.507996         0.222414
 O         0.460548         0.598652         0.008494
 C        -1.637323        -0.848199         0.088551
 H        -3.788823        -2.399774         1.238898
 H        -2.408679        -0.277657         3.404030
 H        -1.244178        -1.534277         2.577544
 H        -0.902079         1.566026         2.246710
 H        -3.525976         1.551654         1.768969
 H        -2.667290         1.512219        -1.142998
 H        -1.849842         2.703638        -0.167438
 H         0.540775         1.192944         0.765578
 H        -1.928838        -1.327862        -0.851652
 H        -0.860906        -1.555248         0.480072
