19
Iteration:  2111charge 0 multiplicity 1
 O        -3.873638        -1.474539         1.058124
 C        -2.666693        -0.640952         1.172330
 C        -1.927142        -0.453182         2.485388
 C        -1.487632         0.802032         1.870374
 C        -2.818214         0.938921         1.006919
 C        -2.017668         1.455877        -0.245877
 C        -0.943100         0.532387         0.350528
 O         0.407946         0.601149        -0.100668
 C        -1.565591        -0.849228         0.176889
 H        -3.866282        -2.092211         1.840839
 H        -2.517354        -0.370194         3.404838
 H        -1.130685        -1.182434         2.696174
 H        -0.966625         1.701833         2.293856
 H        -3.796940         1.349801         1.386169
 H        -2.363125         1.250930        -1.266875
 H        -1.661770         2.465094        -0.043979
 H         1.026058         0.625420         0.621476
 H        -1.945579        -0.975954        -0.846764
 H        -0.970300        -1.708475         0.457132
