19
Iteration:  2260
 O        -3.712956        -1.545952         1.186618
 C        -2.694377        -0.622375         1.189144
 C        -1.862684        -0.437193         2.461545
 C        -1.532736         0.876776         1.735063
 C        -2.922157         1.003026         1.020413
 C        -2.105096         1.551544        -0.240922
 C        -0.971242         0.539448         0.348690
 O         0.486896         0.412553         0.057968
 C        -1.633465        -0.830354         0.089439
 H        -3.891873        -1.758214         0.264770
 H        -2.362738        -0.450103         3.460353
 H        -1.102547        -1.254340         2.441552
 H        -1.072525         1.668068         2.212767
 H        -3.757393         1.376527         1.506726
 H        -2.312082         1.373540        -1.330079
 H        -1.877240         2.672535        -0.135209
 H         1.102603         0.588552         0.768934
 H        -2.145165        -0.768957        -0.908800
 H        -1.053605        -1.772030         0.244390
