19
Iteration:  2935charge 0 multiplicity 1
 O        -3.893474        -1.453266         1.330873
 C        -2.662357        -0.687791         1.131765
 C        -2.014001        -0.613708         2.418295
 C        -1.523927         0.688787         1.824286
 C        -2.807559         0.917966         0.976874
 C        -1.951452         1.569465        -0.189200
 C        -0.897439         0.552842         0.362048
 O         0.440023         0.690644        -0.081374
 C        -1.545953        -0.875093         0.030529
 H        -4.381074        -1.496390         0.438185
 H        -2.720759        -0.504062         3.251555
 H        -1.245695        -1.415998         2.556940
 H        -1.165220         1.561146         2.433474
 H        -3.673472         1.349636         1.606287
 H        -2.331853         1.491340        -1.272839
 H        -1.472615         2.615922         0.012008
 H         0.949687         1.085586         0.675669
 H        -1.787199        -0.979795        -1.046605
 H        -0.836949        -1.620780         0.373936
