19
Iteration:  4227charge 0 multiplicity 1
 O        -3.868311        -1.360023         0.841681
 C        -2.729185        -0.636289         1.097814
 C        -1.989401        -0.529074         2.536027
 C        -1.354445         0.667254         1.856532
 C        -2.726627         0.914832         1.136200
 C        -2.129987         1.509192        -0.056315
 C        -0.840634         0.454125         0.385468
 O         0.447976         0.661809         0.016261
 C        -1.633440        -0.847251         0.093924
 H        -4.027087        -1.917525         1.579127
 H        -2.689635        -0.273988         3.380981
 H        -1.247633        -1.245654         2.864107
 H        -0.964190         1.552060         2.361491
 H        -3.468541         1.649783         1.565705
 H        -2.526633         1.202501        -1.022259
 H        -1.748802         2.571529        -0.018170
 H         0.606161         0.440170        -0.887625
 H        -1.980078        -0.910317        -0.941079
 H        -1.132080        -1.769838         0.462577
