19
Iteration:  1429charge 0 multiplicity 1
 O        -3.665719        -1.695809         1.075424
 C        -2.692161        -0.683958         1.172246
 C        -2.003918        -0.382105         2.492133
 C        -1.469094         0.875077         1.870617
 C        -2.825438         1.037641         1.049290
 C        -2.012344         1.606001        -0.161296
 C        -0.932501         0.536327         0.355946
 O         0.389730         0.521312        -0.136434
 C        -1.658601        -0.829240         0.093973
 H        -4.136474        -1.690643         1.973218
 H        -2.771169        -0.222524         3.286694
 H        -1.330757        -1.207214         2.833729
 H        -1.107811         1.683048         2.424676
 H        -3.520322         1.667136         1.552438
 H        -2.276895         1.402473        -1.214698
 H        -1.760005         2.638275        -0.043345
 H         0.725136        -0.370344         0.047398
 H        -2.041669        -0.838010        -0.926457
 H        -0.981709        -1.674092         0.230753
