19
Iteration:  1569charge 0 multiplicity 1
 O        -3.560183        -1.703164         1.178695
 C        -2.726463        -0.641550         1.153200
 C        -2.016590        -0.361469         2.505522
 C        -1.571976         0.890685         1.853156
 C        -2.830172         1.031032         0.986756
 C        -1.949202         1.639699        -0.152768
 C        -0.971234         0.547847         0.301895
 O         0.435119         0.423051        -0.050966
 C        -1.737582        -0.751641        -0.006050
 H        -3.505422        -2.211687         2.014011
 H        -2.796027        -0.193443         3.282275
 H        -1.390272        -1.098839         3.008084
 H        -1.075722         1.576392         2.421067
 H        -3.693122         1.447798         1.354539
 H        -1.955914         1.675527        -1.294654
 H        -1.894998         2.696303         0.065535
 H         0.420888        -0.573913        -0.009058
 H        -2.142089        -0.906153        -1.007798
 H        -1.072342        -1.669362         0.089473
