19
Iteration:  1002charge 0 multiplicity 1
 O        -3.853892        -1.598112         1.050577
 C        -2.772708        -0.595737         1.163834
 C        -2.010434        -0.482299         2.519595
 C        -1.381160         0.755829         1.963610
 C        -2.735274         1.033648         1.180897
 C        -1.957487         1.481401        -0.028557
 C        -0.858323         0.426725         0.320289
 O         0.281285         0.705690        -0.341619
 C        -1.543723        -0.912405         0.149999
 H        -4.102758        -1.626385         0.142701
 H        -2.648019        -0.298876         3.404815
 H        -1.380711        -1.336216         2.778298
 H        -0.793921         1.630353         2.515088
 H        -3.556880         1.543280         1.711967
 H        -2.560690         1.382943        -1.022766
 H        -1.641142         2.516314         0.016227
 H         0.964126         1.282206         0.064622
 H        -1.842834        -0.997448        -0.887649
 H        -0.921804        -1.792529         0.364670
