19
Iteration:  4879charge 0 multiplicity 1
 O        -3.981787        -1.299641         1.059104
 C        -2.703596        -0.666316         1.120517
 C        -1.973623        -0.585411         2.523680
 C        -1.415946         0.717797         1.934157
 C        -2.780639         0.937953         1.059697
 C        -1.969703         1.487994        -0.192279
 C        -0.933761         0.510205         0.354247
 O         0.366706         0.716495        -0.079159
 C        -1.415185        -0.922035         0.138609
 H        -3.919304        -2.049451         0.463385
 H        -2.747000        -0.313006         3.319830
 H        -1.360096        -1.472991         2.785987
 H        -0.898165         1.429865         2.522778
 H        -3.745541         1.459012         1.435079
 H        -2.405221         1.353910        -1.151647
 H        -1.906965         2.542361         0.028735
 H         0.740887         0.003903        -0.613514
 H        -1.531715        -1.353033        -0.892749
 H        -0.831592        -1.501556         0.833303
