19
Iteration:  3828
 O        -3.889721        -1.518260         0.918248
 C        -2.754317        -0.623858         1.207512
 C        -1.961279        -0.559082         2.498296
 C        -1.499903         0.770031         1.942428
 C        -2.750504         0.954661         1.040316
 C        -1.950738         1.559977        -0.172304
 C        -0.848584         0.601224         0.378111
 O         0.438127         0.615904        -0.131240
 C        -1.573002        -0.867267         0.188549
 H        -4.257240        -1.577610         1.804417
 H        -2.587140        -0.410491         3.413991
 H        -1.091574        -1.289402         2.701329
 H        -1.243085         1.691754         2.515354
 H        -3.585419         1.543962         1.452124
 H        -2.420890         1.577785        -1.214834
 H        -1.745848         2.624736        -0.005684
 H         0.601471        -0.331308        -0.230605
 H        -1.938375        -1.044374        -0.891502
 H        -1.193453        -1.855258         0.529929
