19
Iteration:  4725charge 0 multiplicity 1
 O        -3.936326        -1.390361         0.887278
 C        -2.763731        -0.659571         1.228955
 C        -1.941338        -0.481933         2.585751
 C        -1.338962         0.724193         1.898672
 C        -2.718109         0.873679         1.138458
 C        -2.069210         1.433442        -0.184515
 C        -0.933180         0.536464         0.376744
 O         0.438674         0.614632        -0.058599
 C        -1.546796        -0.808330         0.185511
 H        -4.081726        -1.405473        -0.098247
 H        -2.577479        -0.120240         3.430299
 H        -1.336142        -1.372874         2.970902
 H        -0.901401         1.591644         2.423378
 H        -3.664839         1.327610         1.536396
 H        -2.558868         1.155890        -1.124951
 H        -1.754971         2.454763        -0.256138
 H         0.480152         0.589098        -1.061752
 H        -1.778537        -1.194535        -0.786433
 H        -0.878393        -1.511436         0.631891
