19
Iteration:   728charge 0 multiplicity 1
 O        -3.556716        -1.735781         1.117558
 C        -2.730238        -0.607111         1.130991
 C        -1.900930        -0.393516         2.421506
 C        -1.530241         0.944299         1.913605
 C        -2.824637         1.050442         1.122066
 C        -2.042605         1.614247        -0.057089
 C        -0.984277         0.535497         0.257975
 O         0.447379         0.391407         0.018359
 C        -1.743626        -0.781012        -0.050897
 H        -4.485421        -1.675930         1.096798
 H        -2.517151        -0.239477         3.357624
 H        -1.318024        -1.320314         2.718302
 H        -1.094680         1.950367         2.298143
 H        -3.710879         1.544360         1.463685
 H        -2.474282         1.783464        -1.031732
 H        -1.593470         2.522658         0.269329
 H         0.589456        -0.484857        -0.405594
 H        -2.163719        -0.693022        -1.065007
 H        -1.142531        -1.722815        -0.057322
