19
Iteration:  2075charge 0 multiplicity 1
 O        -3.906500        -1.496480         1.393618
 C        -2.713407        -0.683587         1.056434
 C        -1.937867        -0.481923         2.363025
 C        -1.483380         0.856288         1.744200
 C        -2.820861         0.899466         0.922442
 C        -1.971575         1.560237        -0.222407
 C        -0.933378         0.511315         0.339293
 O         0.441242         0.600629         0.056108
 C        -1.556687        -0.831430        -0.003304
 H        -3.659059        -2.417507         1.652553
 H        -2.731311        -0.339426         3.122142
 H        -1.082394        -1.071099         2.810173
 H        -0.964789         1.579134         2.368290
 H        -3.761513         1.149297         1.298250
 H        -2.275029         1.644996        -1.242087
 H        -1.719922         2.609712         0.031657
 H         0.835558         0.473856         0.915445
 H        -2.047708        -0.996508        -1.021122
 H        -0.899189        -1.742501         0.144223
