19
Iteration:  3166charge 0 multiplicity 1
 O        -3.807462        -1.467942         0.883017
 C        -2.748269        -0.671973         1.201593
 C        -2.066297        -0.521817         2.595919
 C        -1.422333         0.814665         1.902717
 C        -2.736031         1.039148         1.155286
 C        -1.951318         1.474835        -0.157849
 C        -0.895914         0.443745         0.404920
 O         0.370866         0.620246        -0.168668
 C        -1.548612        -0.880057         0.124987
 H        -3.660084        -2.273682         1.437521
 H        -2.746460        -0.165289         3.371294
 H        -1.296582        -1.170189         3.074524
 H        -0.975489         1.543215         2.542910
 H        -3.469116         1.574446         1.718998
 H        -2.459017         1.304256        -1.112935
 H        -1.800846         2.550669         0.045567
 H         0.134647         1.038925        -1.003631
 H        -1.944512        -0.838602        -0.955343
 H        -1.119366        -1.867413         0.385117
