19
Iteration:   792charge 0 multiplicity 1
 O        -3.987324        -1.163292         1.001335
 C        -2.731836        -0.683159         1.132938
 C        -1.905969        -0.595396         2.498272
 C        -1.370669         0.748478         1.895840
 C        -2.736066         0.872568         1.130854
 C        -2.039686         1.289060        -0.158153
 C        -0.890515         0.398640         0.410581
 O         0.321155         1.027135        -0.197284
 C        -1.475595        -1.135245         0.136643
 H        -4.190288        -1.853529         1.710972
 H        -2.539373        -0.231306         3.292998
 H        -1.414725        -1.570797         2.688636
 H        -0.826478         1.504560         2.545304
 H        -3.698170         1.297063         1.453260
 H        -2.482435         0.890772        -1.062459
 H        -1.749700         2.350159        -0.269336
 H         1.125616         0.707859         0.301818
 H        -1.700354        -1.162103        -0.899772
 H        -0.819760        -1.955094         0.470732
