19
Iteration:  4158charge 0 multiplicity 1
 O        -3.942835        -1.456789         1.199088
 C        -2.644937        -0.769981         1.111740
 C        -1.925873        -0.600205         2.376982
 C        -1.493784         0.711847         1.825718
 C        -2.821075         0.948082         1.013972
 C        -1.951636         1.604611        -0.079544
 C        -0.889143         0.540892         0.407868
 O         0.505626         0.647160         0.054518
 C        -1.656727        -0.747884        -0.029284
 H        -4.319699        -1.332688         0.304188
 H        -2.628480        -0.509715         3.212434
 H        -1.212098        -1.382082         2.757607
 H        -0.953737         1.483835         2.470038
 H        -3.633097         1.333837         1.627457
 H        -2.373366         1.419403        -1.078527
 H        -1.838288         2.693719         0.238409
 H         0.740358        -0.158510        -0.432977
 H        -2.040447        -0.759253        -1.040956
 H        -0.896640        -1.563201         0.037611
