19
Iteration:  1079charge 0 multiplicity 1
 O        -3.861738        -1.494077         1.231602
 C        -2.738049        -0.614434         1.173154
 C        -1.680340        -0.724683         2.341912
 C        -1.390629         0.699186         1.791814
 C        -2.812034         0.991677         1.109217
 C        -2.142386         1.510255        -0.229829
 C        -1.004052         0.556244         0.288168
 O         0.445362         0.608963         0.191894
 C        -1.691406        -0.775507        -0.060131
 H        -4.538580        -1.075688         0.673583
 H        -1.908383        -0.795809         3.427451
 H        -0.908728        -1.446821         2.107196
 H        -0.852565         1.631927         2.305241
 H        -3.576428         1.551776         1.731199
 H        -2.429345         1.421723        -1.340885
 H        -1.929541         2.567538         0.026448
 H         0.752204         1.502478         0.039485
 H        -2.039394        -0.681039        -1.080299
 H        -1.153140        -1.720770         0.049012
