19
Iteration:  2705charge 0 multiplicity 1
 O        -3.952677        -1.359216         1.097390
 C        -2.717213        -0.690871         1.097721
 C        -1.880135        -0.623569         2.409571
 C        -1.398123         0.725678         1.814123
 C        -2.772952         0.949271         1.109352
 C        -2.102521         1.553985        -0.112223
 C        -0.906757         0.476110         0.320718
 O         0.447866         0.676143        -0.027700
 C        -1.573597        -0.905241         0.068810
 H        -3.771761        -2.322115         1.356407
 H        -2.420870        -0.433509         3.367996
 H        -1.131088        -1.436374         2.516871
 H        -1.025481         1.642339         2.333839
 H        -3.656526         1.383546         1.592226
 H        -2.516142         1.565030        -1.158216
 H        -1.869093         2.634154         0.044530
 H         0.749014         1.460341         0.492947
 H        -1.875664        -1.132369        -0.964067
 H        -0.944653        -1.737517         0.471448
