19
Iteration:  4251
 O        -3.935833        -1.311687         0.895806
 C        -2.672246        -0.704981         1.168694
 C        -2.051264        -0.604579         2.479874
 C        -1.444935         0.790755         1.994139
 C        -2.753507         0.958764         1.139188
 C        -1.929852         1.518166        -0.075726
 C        -0.869611         0.483791         0.346657
 O         0.332797         0.636008        -0.139798
 C        -1.479764        -0.891970         0.163739
 H        -3.889800        -2.306165         0.942146
 H        -2.786080        -0.314137         3.272292
 H        -1.525909        -1.540193         2.789522
 H        -0.915647         1.416740         2.657226
 H        -3.681144         1.536586         1.502784
 H        -2.409526         1.369079        -1.109037
 H        -1.406935         2.492675         0.125963
 H         0.437001         0.909262        -1.061081
 H        -1.861381        -1.343574        -0.857261
 H        -0.652509        -1.483676         0.711351
