19
Iteration:  4146
 O        -3.949524        -1.513084         1.105978
 C        -2.815097        -0.629319         1.103135
 C        -1.933577        -0.622915         2.476719
 C        -1.377971         0.695549         1.846892
 C        -2.712433         0.933365         1.113465
 C        -1.987797         1.580433        -0.102568
 C        -0.919562         0.587436         0.349095
 O         0.464554         0.669572         0.023025
 C        -1.596917        -0.814336         0.033588
 H        -4.164449        -1.841315         0.235989
 H        -2.576549        -0.230191         3.250931
 H        -1.268985        -1.502782         2.714410
 H        -1.041935         1.560980         2.463163
 H        -3.554513         1.492922         1.498870
 H        -2.262163         1.624103        -1.194289
 H        -1.691169         2.642519         0.117434
 H         0.697154        -0.143017        -0.421422
 H        -2.051687        -0.630225        -0.972962
 H        -0.957580        -1.720424         0.082702
