19
Iteration:  4758
 O        -3.892845        -1.395442         1.107711
 C        -2.732890        -0.672117         1.071021
 C        -1.974766        -0.522647         2.443643
 C        -1.387805         0.728605         1.884714
 C        -2.677393         1.032755         1.094713
 C        -2.022140         1.482938        -0.207522
 C        -0.949942         0.353409         0.361906
 O         0.424969         0.794141         0.059214
 C        -1.614096        -0.961634         0.131174
 H        -4.009789        -1.440645         0.151260
 H        -2.671440        -0.269331         3.281193
 H        -1.319229        -1.429441         2.656990
 H        -0.771239         1.468271         2.408438
 H        -3.704700         1.345958         1.515472
 H        -2.650783         1.335712        -1.082151
 H        -1.428135         2.387367        -0.241375
 H         0.478112         0.428607        -0.815967
 H        -1.861283        -1.290757        -0.873435
 H        -1.017901        -1.685259         0.657187
