19
Iteration:  4274
 O        -3.978510        -1.351432         0.962284
 C        -2.786834        -0.562117         1.121541
 C        -1.970452        -0.573475         2.540911
 C        -1.483305         0.731631         1.888814
 C        -2.802612         0.910374         1.108817
 C        -1.985823         1.497038        -0.130209
 C        -0.822469         0.453105         0.475732
 O         0.523823         0.647129        -0.188379
 C        -1.533139        -0.937715         0.215091
 H        -3.789336        -1.967826         0.209257
 H        -2.593109        -0.405579         3.439766
 H        -1.272654        -1.437325         2.720193
 H        -0.977647         1.490260         2.440097
 H        -3.679874         1.279356         1.696539
 H        -2.502605         1.407715        -1.157750
 H        -1.716223         2.488312         0.248117
 H         0.498514         1.545310        -0.657737
 H        -1.886718        -1.012777        -0.928293
 H        -0.941012        -1.825847         0.630409
