19
Iteration:  4515charge 0 multiplicity 1
 O        -3.872942        -1.412729         1.195960
 C        -2.637249        -0.677820         1.108489
 C        -1.880442        -0.534573         2.441793
 C        -1.501835         0.778026         1.801126
 C        -2.802137         0.938822         0.986658
 C        -2.048241         1.546284        -0.214884
 C        -0.991290         0.501309         0.376805
 O         0.469865         0.524234         0.209705
 C        -1.575151        -0.830354         0.012541
 H        -4.511339        -1.294244         0.438119
 H        -2.502647        -0.340077         3.333730
 H        -1.047445        -1.321211         2.680495
 H        -0.881018         1.553747         2.269453
 H        -3.643109         1.372898         1.431605
 H        -2.383725         1.511497        -1.324017
 H        -1.668068         2.546846        -0.113452
 H         0.566730         0.468045        -0.793684
 H        -2.133384        -0.787228        -0.904300
 H        -0.859688        -1.642143         0.033081
