19
Iteration:   368charge 0 multiplicity 1
 O        -3.887518        -1.491369         1.330633
 C        -2.704948        -0.693685         1.105340
 C        -1.809992        -0.617916         2.317329
 C        -1.377709         0.751605         1.765460
 C        -2.798142         0.985853         1.140889
 C        -2.018674         1.469871        -0.134476
 C        -0.990108         0.512583         0.269355
 O         0.439663         0.679495         0.151090
 C        -1.719472        -0.779777        -0.117403
 H        -4.238139        -1.922075         0.507851
 H        -2.343322        -0.683459         3.261683
 H        -0.996157        -1.392276         2.262634
 H        -0.716804         1.327818         2.362030
 H        -3.533951         1.492099         1.605592
 H        -2.600751         1.545985        -1.030387
 H        -1.615761         2.433714         0.089808
 H         0.698933         1.636592         0.085594
 H        -2.156822        -0.824608        -1.130250
 H        -1.056280        -1.651792        -0.192337
