19
Iteration:  3073
 O        -3.865962        -1.535284         1.212447
 C        -2.709515        -0.642776         1.097265
 C        -1.836023        -0.562384         2.401623
 C        -1.446527         0.804756         1.783832
 C        -2.810109         1.017148         1.136102
 C        -2.119891         1.540332        -0.200238
 C        -0.955217         0.528021         0.270724
 O         0.472560         0.548215         0.087056
 C        -1.564006        -0.829497        -0.007372
 H        -4.397494        -1.572299         0.397955
 H        -2.342190        -0.327374         3.366712
 H        -1.011238        -1.247473         2.607948
 H        -0.817279         1.538480         2.318659
 H        -3.799812         1.436835         1.462852
 H        -2.688937         1.313762        -1.099500
 H        -1.863419         2.566180        -0.224376
 H         0.708672         0.961954         0.951576
 H        -1.989860        -0.930225        -0.998070
 H        -0.956811        -1.702666         0.316946
