19
Iteration:  3289charge 0 multiplicity 1
 O        -3.753855        -1.415551         0.996828
 C        -2.668687        -0.629459         1.096916
 C        -2.012391        -0.515425         2.450318
 C        -1.494040         0.833897         1.844004
 C        -2.827355         0.926219         1.158569
 C        -2.092071         1.542848        -0.018678
 C        -0.856103         0.528640         0.369780
 O         0.360213         0.513059        -0.190453
 C        -1.481833        -0.848480         0.303763
 H        -4.011540        -1.470857         0.038890
 H        -2.805267        -0.394129         3.233940
 H        -1.381930        -1.317358         2.840567
 H        -1.075501         1.711274         2.434555
 H        -3.768319         1.236167         1.627429
 H        -2.446716         1.441968        -1.068411
 H        -1.817983         2.637860         0.097796
 H         0.652364        -0.288207        -0.631837
 H        -1.747036        -0.893333        -0.779819
 H        -0.857599        -1.761868         0.523043
