19
Iteration:   287
 O        -3.854909        -1.387005         0.859000
 C        -2.683222        -0.608651         1.239004
 C        -2.001270        -0.645715         2.630432
 C        -1.316197         0.705898         1.931697
 C        -2.702355         0.951334         1.245920
 C        -2.035751         1.382852        -0.079764
 C        -0.904716         0.446311         0.316312
 O         0.232706         0.743956        -0.382473
 C        -1.480795        -0.880982         0.260724
 H        -4.080719        -1.222693        -0.051788
 H        -2.610853        -0.210290         3.437546
 H        -1.500017        -1.539886         2.931214
 H        -0.686541         1.414452         2.547151
 H        -3.666358         1.399431         1.767125
 H        -2.624693         1.191665        -0.935832
 H        -1.826782         2.493181         0.057628
 H         0.276555         1.719528        -0.210619
 H        -1.818332        -1.089979        -0.715720
 H        -0.765969        -1.566672         0.677889
