19
Iteration:  3930charge 0 multiplicity 1
 O        -3.889055        -1.249735         0.861948
 C        -2.678858        -0.655327         1.133155
 C        -1.956884        -0.628923         2.498109
 C        -1.438477         0.715631         1.951443
 C        -2.724194         0.965251         1.126149
 C        -2.020282         1.368938        -0.165224
 C        -0.936297         0.424743         0.353154
 O         0.304055         0.828627        -0.136620
 C        -1.496046        -0.994268         0.193778
 H        -4.326044        -1.108754         1.755841
 H        -2.698685        -0.313192         3.330677
 H        -1.264975        -1.324576         2.963115
 H        -0.760458         1.395299         2.635265
 H        -3.689896         1.329621         1.520700
 H        -2.409526         1.179730        -1.130218
 H        -1.645848         2.411736        -0.012302
 H         1.015403         0.249169         0.285563
 H        -1.751675        -0.994906        -0.860447
 H        -0.852387        -1.911326         0.474130
