19
Iteration:  2244charge 0 multiplicity 1
 O        -3.705817        -1.672381         1.157675
 C        -2.702338        -0.649823         1.168541
 C        -1.879478        -0.370245         2.456356
 C        -1.432976         0.937122         1.769790
 C        -2.749912         1.035931         1.046197
 C        -2.108284         1.526608        -0.218722
 C        -0.962334         0.477288         0.257922
 O         0.448604         0.456235         0.133563
 C        -1.774270        -0.803443         0.009503
 H        -3.798268        -2.150525         0.285548
 H        -2.618296        -0.038106         3.182371
 H        -1.085158        -0.960426         2.897040
 H        -0.962762         1.875617         2.299633
 H        -3.616752         1.631640         1.540538
 H        -2.727115         1.458810        -1.122910
 H        -1.761799         2.557568        -0.115326
 H         0.617737         0.192722         1.039505
 H        -2.268359        -0.797431        -0.949324
 H        -1.093861        -1.645508         0.083673
