19
Iteration:  3945
 O        -3.885256        -1.348811         0.815797
 C        -2.727006        -0.643729         1.184342
 C        -2.045116        -0.514381         2.608502
 C        -1.311586         0.681346         1.855492
 C        -2.678316         0.864348         1.163937
 C        -2.041320         1.375029        -0.090275
 C        -0.837223         0.482843         0.401104
 O         0.344923         0.822199        -0.161821
 C        -1.548714        -0.873622         0.124523
 H        -4.631109        -1.224576         1.382186
 H        -2.815519        -0.332582         3.394420
 H        -1.665466        -1.543439         2.874229
 H        -1.024665         1.606084         2.357931
 H        -3.468226         1.435499         1.686496
 H        -2.510936         0.949137        -1.040989
 H        -1.719453         2.455839        -0.177785
 H         0.928387         0.097928        -0.021943
 H        -1.999858        -1.266963        -0.809347
 H        -0.922186        -1.684165         0.578203
