19
Iteration:   212charge 0 multiplicity 1
 O        -3.655781        -1.723641         1.359245
 C        -2.722276        -0.698190         1.114766
 C        -1.844632        -0.517520         2.326080
 C        -1.457047         0.830479         1.767211
 C        -2.850322         1.128437         1.036909
 C        -2.006743         1.601040        -0.151597
 C        -1.004051         0.579451         0.289477
 O         0.401808         0.404383         0.143372
 C        -1.752966        -0.716846        -0.083237
 H        -4.201232        -1.758687         0.516179
 H        -2.351091        -0.620974         3.301939
 H        -1.109060        -1.334441         2.351711
 H        -1.038981         1.849655         2.080855
 H        -3.764416         1.668294         1.530392
 H        -2.359657         1.716182        -1.139398
 H        -1.473070         2.597999         0.086967
 H         0.787387         1.206708         0.530124
 H        -2.285116        -0.504555        -1.033529
 H        -1.231879        -1.695575        -0.175996
