19
Iteration:  4204charge 0 multiplicity 1
 O        -3.915730        -1.473193         0.939098
 C        -2.757918        -0.657632         1.138381
 C        -1.842609        -0.632110         2.375023
 C        -1.369461         0.743284         1.793401
 C        -2.778400         1.006680         1.212827
 C        -2.058134         1.505153        -0.192346
 C        -0.983557         0.563146         0.298583
 O         0.495897         0.682711         0.201688
 C        -1.664798        -0.866983         0.092388
 H        -4.570042        -1.190868         1.670006
 H        -2.322850        -0.504105         3.389962
 H        -1.077945        -1.394479         2.447735
 H        -0.703011         1.515919         2.272841
 H        -3.713767         1.546013         1.526281
 H        -2.259291         1.273856        -1.227602
 H        -1.564121         2.530768        -0.118073
 H         0.735182        -0.034111        -0.483526
 H        -2.090819        -0.770410        -0.855376
 H        -1.010233        -1.743446         0.181843
