19
Iteration:  2234
 O        -3.741388        -1.702817         1.202898
 C        -2.712684        -0.645654         1.135843
 C        -1.880170        -0.327202         2.495070
 C        -1.391919         0.848563         1.735047
 C        -2.747566         1.085083         1.060323
 C        -2.010800         1.524929        -0.212735
 C        -1.033111         0.531639         0.240872
 O         0.375015         0.515993         0.143722
 C        -1.704507        -0.830118        -0.024553
 H        -3.594366        -2.104916         0.319216
 H        -2.667829        -0.024619         3.203027
 H        -1.473232        -1.182234         3.038235
 H        -0.734094         1.660865         2.290235
 H        -3.717382         1.574391         1.507105
 H        -2.500641         1.222803        -1.196122
 H        -1.924758         2.607967        -0.125672
 H         0.834716         0.036716         0.816357
 H        -2.120984        -0.750096        -1.002158
 H        -1.218525        -1.784756         0.123033
