19
Iteration:  1399
 O        -3.618516        -1.702747         1.212096
 C        -2.684829        -0.659053         1.117863
 C        -1.848937        -0.396515         2.491829
 C        -1.513377         0.870910         1.760884
 C        -2.896161         0.984126         0.971945
 C        -2.009005         1.724363        -0.201871
 C        -0.969375         0.518166         0.318339
 O         0.413760         0.407894         0.183325
 C        -1.803239        -0.760657        -0.105703
 H        -3.548429        -1.954845         2.109728
 H        -2.592105        -0.322062         3.231038
 H        -1.060084        -1.083047         2.700107
 H        -1.140994         1.750741         2.230412
 H        -3.596680         1.617865         1.502985
 H        -2.191551         1.732977        -1.232381
 H        -1.702412         2.716678         0.099948
 H         0.523963        -0.405403        -0.385267
 H        -2.283667        -0.569808        -1.046433
 H        -1.181042        -1.633494        -0.098955
