19
Iteration:  2248charge 0 multiplicity 1
 O        -3.695785        -1.638907         1.160813
 C        -2.699087        -0.659646         1.161378
 C        -1.892680        -0.373678         2.447013
 C        -1.458236         0.925295         1.770880
 C        -2.801429         1.029026         1.068803
 C        -2.140896         1.544948        -0.242294
 C        -0.925646         0.492795         0.297817
 O         0.469423         0.439019         0.108663
 C        -1.759565        -0.802441         0.037874
 H        -3.770407        -2.019814         0.282282
 H        -2.557471        -0.143274         3.333172
 H        -1.011713        -1.002909         2.738274
 H        -1.045046         1.787607         2.145030
 H        -3.581116         1.553700         1.495649
 H        -2.659718         1.416840        -1.251770
 H        -1.626216         2.541852        -0.058877
 H         0.661249         0.266500         1.079013
 H        -2.345620        -0.899344        -0.909793
 H        -1.058615        -1.668981         0.014957
