19
Iteration:  4937charge 0 multiplicity 1
 O        -3.954137        -1.436132         0.960908
 C        -2.700379        -0.688939         1.173555
 C        -1.961590        -0.556482         2.444291
 C        -1.369670         0.750075         1.810082
 C        -2.732470         0.968327         1.158784
 C        -2.048485         1.530381        -0.216269
 C        -0.882662         0.522578         0.319349
 O         0.441502         0.625272        -0.020508
 C        -1.596052        -0.830906         0.105362
 H        -4.101989        -2.085879         1.710153
 H        -2.626926        -0.212713         3.305816
 H        -1.476052        -1.503291         2.830889
 H        -0.931387         1.577695         2.464002
 H        -3.450258         1.379031         1.818874
 H        -2.633077         1.311915        -1.154309
 H        -1.849849         2.613755        -0.031417
 H         0.992098         0.798027         0.793812
 H        -2.004322        -0.981022        -0.883014
 H        -0.971157        -1.744031         0.213762
