19
Iteration:  2186charge 0 multiplicity 1
 O        -3.938154        -1.390976         1.131826
 C        -2.719879        -0.713365         1.145436
 C        -1.978590        -0.496491         2.516365
 C        -1.503427         0.865705         1.926860
 C        -2.860825         0.872034         0.982116
 C        -1.954014         1.373177        -0.170950
 C        -0.919127         0.508443         0.454123
 O         0.412738         0.778004        -0.255297
 C        -1.406864        -0.952681         0.210394
 H        -4.538611        -1.176536         0.406737
 H        -2.492798        -0.424169         3.471868
 H        -1.099427        -1.079461         2.833343
 H        -1.049532         1.682298         2.520492
 H        -3.782991         1.231992         1.422716
 H        -2.267030         1.105768        -1.165648
 H        -1.672300         2.417779        -0.030001
 H         0.963507        -0.051544        -0.332106
 H        -1.601862        -1.167444        -0.867446
 H        -0.696295        -1.687814         0.614768
