19
Iteration:   533charge 0 multiplicity 1
 O        -3.916795        -1.470234         1.236881
 C        -2.662659        -0.720680         1.091046
 C        -1.738213        -0.604025         2.288365
 C        -1.412386         0.791129         1.722763
 C        -2.746114         0.951216         1.148317
 C        -2.106485         1.547935        -0.152037
 C        -1.020517         0.576373         0.252105
 O         0.387139         0.646011         0.248164
 C        -1.644246        -0.756214        -0.074414
 H        -3.723408        -2.190176         1.832288
 H        -2.350301        -0.553550         3.211181
 H        -0.955054        -1.375391         2.290682
 H        -0.866105         1.573942         2.279708
 H        -3.603711         1.263636         1.578399
 H        -2.558119         1.520503        -1.205859
 H        -1.776668         2.564798         0.063035
 H         0.623458        -0.071529        -0.346315
 H        -2.166494        -0.814746        -1.120891
 H        -0.937888        -1.632691         0.025526
