19
Iteration:  2745
 O        -3.902715        -1.391335         1.207535
 C        -2.706954        -0.660423         1.016749
 C        -1.794020        -0.560866         2.366039
 C        -1.492625         0.788651         1.796269
 C        -2.841872         0.829527         0.990636
 C        -1.993171         1.510428        -0.042784
 C        -0.927415         0.530723         0.463918
 O         0.422963         0.619612        -0.000265
 C        -1.635643        -0.831802        -0.031786
 H        -3.742664        -2.139088         1.738787
 H        -2.529081        -0.564405         3.182770
 H        -0.960217        -1.255619         2.455831
 H        -1.197745         1.711561         2.266529
 H        -3.615216         1.237830         1.543730
 H        -2.367018         1.432344        -1.108253
 H        -1.865509         2.599641         0.090025
 H         0.971013         0.915408         0.720859
 H        -1.941977        -0.540870        -1.051535
 H        -1.130197        -1.806457        -0.192740
