19
Iteration:   390charge 0 multiplicity 1
 O        -3.822675        -1.527498         1.386304
 C        -2.698501        -0.667474         1.085588
 C        -1.755787        -0.664770         2.312468
 C        -1.360884         0.652547         1.712380
 C        -2.769310         0.982469         1.047043
 C        -2.097113         1.713417        -0.184731
 C        -1.007904         0.518521         0.280492
 O         0.465875         0.659391         0.235797
 C        -1.786215        -0.854496        -0.097618
 H        -4.497197        -1.605665         0.676725
 H        -2.378667        -0.584789         3.202849
 H        -0.963916        -1.462353         2.402595
 H        -0.897990         1.432869         2.255807
 H        -3.560399         1.354632         1.523135
 H        -2.513493         1.455117        -1.169320
 H        -1.829376         2.762986        -0.201126
 H         0.738373         1.510813         0.558085
 H        -2.080576        -0.779229        -1.160038
 H        -1.345896        -1.845609        -0.220320
