19
Iteration:  1551
 O        -3.698384        -1.716993         1.121265
 C        -2.686360        -0.717879         1.166318
 C        -2.031145        -0.357817         2.537569
 C        -1.510162         0.893799         1.811879
 C        -2.832543         0.993985         1.006683
 C        -1.929450         1.604694        -0.145873
 C        -0.898099         0.488950         0.352338
 O         0.373880         0.554789        -0.160398
 C        -1.620502        -0.827794         0.101764
 H        -4.226440        -1.497558         1.920530
 H        -2.806530        -0.062570         3.271267
 H        -1.397182        -1.158549         3.025183
 H        -1.138466         1.853668         2.296236
 H        -3.744329         1.531696         1.371050
 H        -2.387876         1.680963        -1.125989
 H        -1.525005         2.571124         0.238368
 H         0.843233        -0.276911         0.124142
 H        -2.089641        -0.774152        -0.886309
 H        -0.981742        -1.699928         0.085891
