19
Iteration:  1285charge 0 multiplicity 1
 O        -3.729709        -1.457791         0.775577
 C        -2.736871        -0.606228         1.218421
 C        -1.891069        -0.560499         2.628800
 C        -1.343645         0.721608         1.952356
 C        -2.753482         0.959031         1.249684
 C        -2.144371         1.537469        -0.057719
 C        -0.972982         0.549520         0.337268
 O         0.303553         0.607650        -0.272079
 C        -1.516821        -0.851098         0.189663
 H        -4.571304        -1.041957         0.769219
 H        -2.507288        -0.404525         3.564188
 H        -1.271074        -1.476160         2.772201
 H        -0.813412         1.459960         2.701915
 H        -3.642881         1.475807         1.734712
 H        -2.595683         1.302686        -1.052623
 H        -1.939900         2.605602        -0.033152
 H         0.366460        -0.132719        -0.929614
 H        -1.855312        -1.137153        -0.834529
 H        -0.785736        -1.527183         0.692231
