19
Iteration:  1038charge 0 multiplicity 1
 O        -3.744925        -1.512521         1.302518
 C        -2.698746        -0.604291         1.127719
 C        -1.788080        -0.601414         2.420358
 C        -1.468136         0.777843         1.779229
 C        -2.865571         0.921625         1.110751
 C        -2.098498         1.651695        -0.129106
 C        -0.950247         0.545299         0.261372
 O         0.389736         0.447604         0.053897
 C        -1.628972        -0.749174        -0.134226
 H        -4.131626        -1.815673         0.486637
 H        -2.412358        -0.581228         3.316887
 H        -1.005263        -1.364667         2.306176
 H        -0.941475         1.534687         2.294140
 H        -3.716369         1.564009         1.525083
 H        -2.556963         1.634495        -1.106483
 H        -1.863590         2.648026         0.262663
 H         0.849576         0.924621         0.799113
 H        -2.264189        -0.645693        -1.030847
 H        -1.043907        -1.650259        -0.109814
