19
Iteration:  2943charge 0 multiplicity 1
 O        -3.916683        -1.445475         1.282565
 C        -2.706674        -0.644534         1.089954
 C        -1.999119        -0.626544         2.481410
 C        -1.441348         0.732559         1.814690
 C        -2.755694         0.941520         0.998751
 C        -1.940528         1.417599        -0.154838
 C        -0.890488         0.492529         0.333470
 O         0.422131         0.776994        -0.072521
 C        -1.577706        -0.859089         0.061476
 H        -4.264535        -1.581150         0.339382
 H        -2.710425        -0.464482         3.318400
 H        -1.434079        -1.534862         2.708397
 H        -1.034232         1.549872         2.384229
 H        -3.684865         1.343478         1.385605
 H        -2.341430         1.337692        -1.183904
 H        -1.638319         2.438127         0.104297
 H         0.917343         1.320678         0.595379
 H        -1.985924        -0.855015        -1.001329
 H        -0.922205        -1.789176         0.166543
