19
Iteration:  3366
 O        -3.982159        -1.274243         1.332559
 C        -2.693916        -0.755406         1.105599
 C        -1.919842        -0.710537         2.407827
 C        -1.512389         0.730652         1.786729
 C        -2.773129         0.896126         0.978247
 C        -2.042720         1.470617        -0.238777
 C        -0.929976         0.527765         0.380227
 O         0.437118         0.754100         0.057173
 C        -1.486389        -0.902289        -0.007778
 H        -4.321119        -1.343952         0.383404
 H        -2.623624        -0.509401         3.256851
 H        -1.007718        -1.287149         2.525990
 H        -0.916094         1.607993         2.294693
 H        -3.663449         1.351482         1.539350
 H        -2.426004         1.434599        -1.267959
 H        -1.593987         2.490080        -0.137874
 H         1.111600         0.586815         0.797522
 H        -1.699782        -0.976429        -1.113066
 H        -0.599317        -1.594724         0.222058
