19
Iteration:  4222
 O        -3.898523        -1.401161         0.842063
 C        -2.743220        -0.619786         1.149809
 C        -1.937910        -0.545252         2.517828
 C        -1.361082         0.702466         1.841824
 C        -2.740473         0.931644         1.126753
 C        -2.105556         1.506661        -0.108939
 C        -0.844731         0.460377         0.368663
 O         0.486088         0.673954         0.061326
 C        -1.666739        -0.810855         0.069535
 H        -4.250154        -1.892426         1.646986
 H        -2.526957        -0.318081         3.393130
 H        -1.282754        -1.394250         2.860813
 H        -0.941173         1.540290         2.449614
 H        -3.419885         1.557709         1.660663
 H        -2.704489         1.156862        -0.982733
 H        -1.851247         2.534576         0.057003
 H         0.825774         0.337253        -0.829827
 H        -2.044397        -1.119192        -0.934895
 H        -1.156401        -1.745634         0.305762
