19
Iteration:   181charge 0 multiplicity 1
 O        -3.686985        -1.644672         1.126416
 C        -2.669501        -0.639374         1.156243
 C        -1.992713        -0.483639         2.490130
 C        -1.397308         0.849193         1.846713
 C        -2.808713         1.009929         1.114957
 C        -2.051903         1.588713        -0.139698
 C        -0.980291         0.587368         0.316086
 O         0.375367         0.443164        -0.168653
 C        -1.642886        -0.800964         0.158408
 H        -4.110913        -1.547735         0.268837
 H        -2.744464        -0.315582         3.310425
 H        -1.295040        -1.337381         2.765767
 H        -1.182054         1.847394         2.351396
 H        -3.695800         1.369875         1.667591
 H        -2.553903         1.545298        -1.165021
 H        -1.724921         2.648503         0.016327
 H         1.061264         0.748310         0.459012
 H        -2.034115        -0.860760        -0.902446
 H        -0.960847        -1.702920         0.261242
