19
Iteration:  3151charge 0 multiplicity 1
 O        -3.801124        -1.547380         0.888437
 C        -2.715358        -0.546439         1.155616
 C        -2.099404        -0.474498         2.584194
 C        -1.285743         0.625500         1.920578
 C        -2.699573         1.029258         1.121495
 C        -2.011326         1.446514        -0.132539
 C        -0.929104         0.490125         0.336097
 O         0.368745         0.697542        -0.141600
 C        -1.639460        -0.859855         0.206301
 H        -3.870297        -2.090420         1.650213
 H        -2.864475        -0.071646         3.292139
 H        -1.755740        -1.452192         3.001747
 H        -0.648544         1.423629         2.406704
 H        -3.591550         1.650470         1.553086
 H        -2.375551         1.175092        -1.114663
 H        -1.542741         2.385941        -0.225522
 H         0.381532         1.293505        -0.876886
 H        -2.112098        -1.129084        -0.791932
 H        -0.890920        -1.598653         0.520395
