19
Iteration:   266charge 0 multiplicity 1
 O        -3.942234        -1.333191         1.110307
 C        -2.693594        -0.707126         1.121825
 C        -1.861909        -0.620163         2.429538
 C        -1.397301         0.701354         1.905880
 C        -2.755250         0.924784         1.196802
 C        -2.113294         1.446598        -0.133073
 C        -0.913756         0.556222         0.339709
 O         0.417132         0.700993        -0.151868
 C        -1.524697        -0.924269         0.132530
 H        -4.073812        -1.526250         0.165460
 H        -2.567922        -0.504286         3.266903
 H        -1.062901        -1.326104         2.563713
 H        -0.987217         1.570936         2.511633
 H        -3.693618         1.261672         1.807086
 H        -2.625831         1.167450        -0.997804
 H        -1.930187         2.560342        -0.023404
 H         0.360415         1.615580        -0.431900
 H        -1.822120        -1.016247        -0.898104
 H        -0.827277        -1.700624         0.458577
