19
Iteration:  4307charge 0 multiplicity 1
 O        -3.823945        -1.422648         1.052948
 C        -2.685314        -0.592061         1.098813
 C        -1.925086        -0.547691         2.521641
 C        -1.416469         0.728101         1.854743
 C        -2.701736         1.003191         1.111944
 C        -2.088274         1.526890        -0.272057
 C        -0.948394         0.454822         0.387240
 O         0.351725         0.547848         0.084266
 C        -1.587642        -0.857106         0.031883
 H        -4.235855        -1.345827         0.206658
 H        -2.648522        -0.287027         3.305351
 H        -1.263048        -1.412456         2.787597
 H        -0.715178         1.398925         2.320094
 H        -3.524648         1.408792         1.711674
 H        -2.677190         1.339153        -1.242215
 H        -1.756143         2.549051        -0.411457
 H         0.768529         1.085001         0.744302
 H        -2.009334        -1.093162        -1.053113
 H        -0.898931        -1.725598         0.301799
