19
Iteration:  3415charge 0 multiplicity 1
 O        -3.769680        -1.598321         1.053448
 C        -2.716189        -0.616811         1.177736
 C        -1.952614        -0.486532         2.520032
 C        -1.444329         0.766032         1.819657
 C        -2.752145         1.099411         1.106302
 C        -1.966641         1.544394        -0.174378
 C        -0.997198         0.492994         0.264484
 O         0.357737         0.614582        -0.013669
 C        -1.628082        -0.902495         0.137534
 H        -3.913803        -1.661232         0.120752
 H        -2.585480        -0.047965         3.265342
 H        -1.400891        -1.412146         2.695785
 H        -0.852117         1.533831         2.273619
 H        -3.452903         1.709574         1.605057
 H        -2.406476         1.420497        -1.206937
 H        -1.588698         2.571631        -0.070217
 H         0.673276         0.048511         0.675383
 H        -2.144932        -0.922623        -0.800242
 H        -1.002459        -1.748985         0.262697
