19
Iteration:  4878
 O        -3.985228        -1.305481         1.062327
 C        -2.704885        -0.668032         1.118778
 C        -1.976934        -0.581363         2.522923
 C        -1.415680         0.711892         1.935397
 C        -2.789953         0.933992         1.070631
 C        -1.968586         1.488447        -0.193113
 C        -0.927794         0.509065         0.347208
 O         0.376803         0.718132        -0.078463
 C        -1.411359        -0.914757         0.141559
 H        -3.946890        -2.057368         0.440534
 H        -2.733706        -0.272703         3.291561
 H        -1.354256        -1.460960         2.776727
 H        -0.900582         1.446924         2.527979
 H        -3.750418         1.476283         1.436003
 H        -2.417037         1.362358        -1.168965
 H        -1.906531         2.539795         0.012803
 H         0.739731        -0.016265        -0.640952
 H        -1.555373        -1.327414        -0.916802
 H        -0.852690        -1.513669         0.853424
