19
Iteration:   897charge 0 multiplicity 1
 O        -3.756060        -1.771583         1.416218
 C        -2.771423        -0.667760         1.021947
 C        -1.981042        -0.435494         2.345235
 C        -1.442541         0.808428         1.769608
 C        -2.790351         1.069478         1.116965
 C        -1.998274         1.683230        -0.093964
 C        -0.898329         0.521191         0.325622
 O         0.489623         0.590029         0.069160
 C        -1.704664        -0.798926        -0.157499
 H        -4.368324        -1.957135         0.687109
 H        -2.659249        -0.191059         3.242063
 H        -1.286385        -1.272403         2.686119
 H        -1.014653         1.586382         2.263343
 H        -3.713348         1.569498         1.602471
 H        -2.393543         1.653589        -1.119266
 H        -1.555569         2.716012         0.131670
 H         0.798176        -0.286087        -0.288936
 H        -2.111403        -0.813071        -1.245728
 H        -1.137601        -1.748733         0.026751
