19
Iteration:  3361
 O        -3.957827        -1.282956         1.308988
 C        -2.673295        -0.689169         1.109332
 C        -1.926331        -0.682363         2.427425
 C        -1.539400         0.669875         1.803226
 C        -2.760918         0.893260         0.967705
 C        -2.028976         1.500025        -0.228232
 C        -0.946786         0.486942         0.363396
 O         0.457952         0.797111         0.024721
 C        -1.498866        -0.924873         0.029329
 H        -4.370819        -1.284885         0.441165
 H        -2.596135        -0.523290         3.266374
 H        -1.122532        -1.464265         2.618624
 H        -0.892126         1.437572         2.117266
 H        -3.625617         1.256322         1.429509
 H        -2.500650         1.440092        -1.222591
 H        -1.643671         2.507777        -0.074125
 H         0.904490         0.559342         0.823168
 H        -1.688887        -1.044694        -1.042622
 H        -0.727344        -1.630571         0.317229
