19
Iteration:  3635
 O        -4.091898        -1.235654         0.988325
 C        -2.702920        -0.706451         1.130659
 C        -1.921965        -0.515382         2.531809
 C        -1.368694         0.679211         1.856368
 C        -2.774194         0.874013         1.057631
 C        -2.012206         1.431464        -0.157103
 C        -0.908766         0.456204         0.365321
 O         0.446366         0.757891        -0.038374
 C        -1.427023        -0.932201         0.219546
 H        -4.001345        -2.185696         0.999561
 H        -2.705450        -0.460163         3.332568
 H        -1.222175        -1.329977         2.805343
 H        -0.907019         1.661709         2.299173
 H        -3.704513         1.360569         1.426483
 H        -2.446455         1.137229        -1.180399
 H        -1.868633         2.578073        -0.090145
 H         0.325604         0.830643        -0.969301
 H        -1.773758        -1.203711        -0.789446
 H        -0.731404        -1.658710         0.591720
