19
Iteration:   493charge 0 multiplicity 1
 O        -3.935703        -1.278539         0.969407
 C        -2.685168        -0.688336         1.199937
 C        -1.858141        -0.649641         2.497159
 C        -1.358081         0.710661         1.920624
 C        -2.744791         0.896098         1.186653
 C        -2.062827         1.380841        -0.111379
 C        -0.927996         0.486375         0.333036
 O         0.325471         0.822114        -0.145321
 C        -1.548525        -0.881354         0.143286
 H        -3.911367        -2.245149         0.697007
 H        -2.455487        -0.406516         3.425407
 H        -1.158231        -1.479147         2.711941
 H        -0.914621         1.598350         2.467080
 H        -3.611411         1.386064         1.746585
 H        -2.562007         1.142418        -1.068329
 H        -1.720410         2.398173        -0.071777
 H         0.427465         0.955951        -1.110260
 H        -2.034381        -0.970736        -0.847469
 H        -0.823740        -1.604266         0.506121
