19
Iteration:  4499charge 0 multiplicity 1
 O        -3.842541        -1.514708         1.207072
 C        -2.755799        -0.659685         1.029361
 C        -1.863802        -0.452951         2.404410
 C        -1.426295         0.865163         1.830171
 C        -2.735737         1.034198         1.076893
 C        -1.933450         1.476099        -0.166697
 C        -0.913277         0.467261         0.383571
 O         0.363479         0.582695         0.215202
 C        -1.696445        -0.916804        -0.097116
 H        -4.397202        -1.431889         0.417517
 H        -2.591043        -0.546518         3.246223
 H        -1.125445        -1.156571         2.715691
 H        -1.050193         1.741585         2.364237
 H        -3.726531         1.556990         1.411140
 H        -2.375283         1.272637        -1.093756
 H        -1.729364         2.581145        -0.039239
 H         0.806922         0.373474        -0.578338
 H        -1.826114        -0.856192        -1.211523
 H        -1.172414        -1.867147         0.174312
