19
Iteration:  3997charge 0 multiplicity 1
 O        -3.787348        -1.478121         1.019013
 C        -2.716523        -0.643443         1.061383
 C        -1.894993        -0.559228         2.374449
 C        -1.452771         0.783924         1.880248
 C        -2.829308         0.919972         1.070627
 C        -1.957068         1.604224        -0.128869
 C        -0.971300         0.504712         0.491522
 O         0.356721         0.543202        -0.003164
 C        -1.588123        -0.775433         0.062859
 H        -4.348870        -1.443339         1.775629
 H        -2.511755        -0.470545         3.295150
 H        -1.187873        -1.325427         2.605050
 H        -1.032742         1.726606         2.346037
 H        -3.727935         1.432832         1.450275
 H        -2.217818         1.633793        -1.147215
 H        -1.703357         2.573890         0.328105
 H         0.655269        -0.317767        -0.228612
 H        -1.990526        -0.706410        -0.911262
 H        -0.873693        -1.645547         0.154423
