19
Iteration:  4919
 O        -3.983218        -1.385015         0.847207
 C        -2.791395        -0.613868         1.168135
 C        -1.857975        -0.511294         2.607114
 C        -1.365763         0.759902         1.880266
 C        -2.741182         0.924675         1.114949
 C        -2.105163         1.390209        -0.103763
 C        -0.864090         0.491745         0.368590
 O         0.470468         0.713012        -0.091520
 C        -1.661576        -0.882779         0.069743
 H        -3.930715        -2.207500         1.409530
 H        -2.497873        -0.195713         3.385589
 H        -1.083385        -1.236749         2.875233
 H        -0.756627         1.514847         2.458169
 H        -3.614341         1.476623         1.498022
 H        -2.343858         0.996034        -1.140073
 H        -1.826500         2.445494        -0.159905
 H         0.914581         0.277417         0.684788
 H        -1.919257        -0.892343        -1.020952
 H        -0.851117        -1.602891         0.317616
