19
Iteration:  1035
 O        -3.747102        -1.515299         1.289875
 C        -2.697487        -0.623890         1.155884
 C        -1.822760        -0.595823         2.425421
 C        -1.481883         0.737250         1.778699
 C        -2.874796         0.921974         1.095826
 C        -2.064576         1.664898        -0.104855
 C        -0.943151         0.547589         0.248947
 O         0.398454         0.461238         0.005380
 C        -1.634167        -0.723934        -0.084355
 H        -4.105820        -1.841504         0.462439
 H        -2.434350        -0.545037         3.348552
 H        -1.071183        -1.389102         2.418095
 H        -0.907589         1.629506         2.348055
 H        -3.735191         1.487551         1.544813
 H        -2.580486         1.621376        -1.149482
 H        -1.844854         2.696050         0.190266
 H         0.900192         0.865896         0.713431
 H        -2.232763        -0.711221        -0.995889
 H        -0.932858        -1.576446        -0.112859
