19
Iteration:  3812charge 0 multiplicity 1
 O        -3.896820        -1.340489         0.908162
 C        -2.686382        -0.677972         1.118111
 C        -1.980572        -0.517670         2.558540
 C        -1.470856         0.811026         1.905148
 C        -2.781800         0.936119         1.139858
 C        -2.024817         1.388702        -0.110670
 C        -0.926636         0.449172         0.333676
 O         0.449239         0.710240        -0.116124
 C        -1.529343        -0.899019         0.135916
 H        -4.469647        -1.400800         1.651189
 H        -2.677933        -0.371486         3.387774
 H        -1.383423        -1.340010         2.875803
 H        -0.920713         1.592412         2.431134
 H        -3.721212         1.305504         1.572291
 H        -2.354040         1.117117        -1.083564
 H        -1.662352         2.431164         0.027477
 H         1.007761        -0.003776        -0.367569
 H        -1.855748        -0.990326        -0.858436
 H        -0.748209        -1.614299         0.386310
