19
Iteration:  3752
 O        -3.916176        -1.407320         0.988737
 C        -2.751919        -0.624586         1.126856
 C        -1.902379        -0.533432         2.468162
 C        -1.374259         0.714788         1.914154
 C        -2.805964         0.913800         1.076172
 C        -2.040641         1.413912        -0.134397
 C        -0.878086         0.482678         0.404216
 O         0.417726         0.726654        -0.132404
 C        -1.580821        -0.922220         0.167997
 H        -4.668486        -0.806098         0.992176
 H        -2.560314        -0.311855         3.316941
 H        -1.272863        -1.454080         2.609287
 H        -1.029478         1.688032         2.432842
 H        -3.613052         1.406156         1.658158
 H        -2.366403         1.318282        -1.214867
 H        -1.694718         2.435086         0.049180
 H         1.234515         0.611905         0.388503
 H        -1.826975        -0.978713        -0.962163
 H        -0.970785        -1.841722         0.415990
