19
Iteration:   736
 O        -3.594350        -1.711697         1.093893
 C        -2.712046        -0.599032         1.140545
 C        -1.880598        -0.419193         2.405144
 C        -1.522470         0.903035         1.841194
 C        -2.792840         1.025838         1.136078
 C        -2.052382         1.622078        -0.073762
 C        -0.969217         0.496241         0.262568
 O         0.385109         0.416926         0.013664
 C        -1.700162        -0.735338         0.006702
 H        -4.498324        -1.518485         1.217726
 H        -2.703249        -0.310151         3.110562
 H        -1.158268        -1.179237         2.834390
 H        -1.065657         1.700671         2.334660
 H        -3.679692         1.607987         1.604222
 H        -2.569428         1.675708        -1.017577
 H        -1.741487         2.693418         0.229790
 H         0.724293        -0.475441        -0.118186
 H        -2.069898        -0.844979        -0.994740
 H        -1.074602        -1.647630         0.128134
