19
Iteration:  4974
 O        -3.886829        -1.499056         1.072497
 C        -2.744646        -0.661004         1.115713
 C        -1.871524        -0.605649         2.369450
 C        -1.539706         0.847689         1.882055
 C        -2.773808         0.968753         1.055541
 C        -1.916273         1.558906        -0.094269
 C        -0.943736         0.481035         0.401776
 O         0.440298         0.535681         0.013203
 C        -1.614044        -0.848807         0.018043
 H        -4.445970        -1.345236         1.871901
 H        -2.483177        -0.624919         3.253041
 H        -1.045133        -1.339071         2.447167
 H        -1.079327         1.595021         2.561226
 H        -3.691229         1.471482         1.468274
 H        -2.144320         1.692457        -1.240700
 H        -1.540853         2.583280         0.148292
 H         0.602342         1.464105        -0.353588
 H        -1.982444        -0.746110        -1.028852
 H        -0.952397        -1.723425         0.193619
