19
Iteration:  2134
 O        -3.848010        -1.468234         0.810746
 C        -2.737753        -0.555739         1.269160
 C        -1.887251        -0.470457         2.553478
 C        -1.359385         0.784797         1.799349
 C        -2.710013         1.042036         1.125295
 C        -2.115927         1.283783        -0.226943
 C        -0.927710         0.417651         0.342332
 O         0.329853         0.775478        -0.098375
 C        -1.535649        -0.970906         0.241114
 H        -4.456545        -1.738190         1.482434
 H        -2.475656        -0.009216         3.364636
 H        -1.158331        -1.108342         3.033481
 H        -0.830292         1.719308         2.250416
 H        -3.518987         1.642095         1.694169
 H        -2.760912         0.826740        -1.006926
 H        -1.866180         2.329264        -0.371876
 H         1.019323         0.674333         0.599241
 H        -1.986628        -1.227537        -0.696205
 H        -1.141003        -1.877035         0.661106
