19
Iteration:  3999charge 0 multiplicity 1
 O        -3.798596        -1.476197         1.022606
 C        -2.731413        -0.661506         1.076550
 C        -1.873224        -0.552112         2.373583
 C        -1.453371         0.783644         1.886368
 C        -2.833025         0.920051         1.058631
 C        -1.965450         1.596518        -0.121202
 C        -0.955111         0.513770         0.486658
 O         0.372911         0.543969         0.005711
 C        -1.597769        -0.765662         0.042449
 H        -4.303534        -1.459142         1.846941
 H        -2.578058        -0.425441         3.252879
 H        -1.174287        -1.374974         2.592092
 H        -1.075632         1.671795         2.387500
 H        -3.747505         1.423682         1.423116
 H        -2.230238         1.666480        -1.204865
 H        -1.695466         2.598156         0.292829
 H         0.686968        -0.336306        -0.199610
 H        -2.041668        -0.734387        -0.964711
 H        -0.866914        -1.614191         0.152918
