19
Iteration:  3223charge 0 multiplicity 1
 O        -3.970656        -1.353108         1.190083
 C        -2.698055        -0.633213         1.099909
 C        -1.854854        -0.588863         2.370280
 C        -1.347839         0.797424         1.797881
 C        -2.755469         0.981368         1.137034
 C        -2.055726         1.367090        -0.228702
 C        -0.932900         0.461708         0.262905
 O         0.425342         0.753230         0.261581
 C        -1.638144        -0.922635        -0.025905
 H        -3.950240        -2.156240         0.667761
 H        -2.536323        -0.466542         3.241483
 H        -0.986922        -1.145596         2.683025
 H        -0.634046         1.427068         2.362212
 H        -3.661195         1.392945         1.494544
 H        -2.631914         1.076789        -1.144160
 H        -1.894984         2.487343        -0.346990
 H         0.803609         0.867554        -0.648007
 H        -2.101261        -1.076020        -1.011640
 H        -1.040082        -1.836455         0.203844
