19
Iteration:  3983
 O        -3.741884        -1.535431         0.910664
 C        -2.709034        -0.594974         1.123726
 C        -1.967771        -0.584392         2.502913
 C        -1.485489         0.806361         1.881479
 C        -2.758571         1.041712         1.111782
 C        -1.956852         1.557600        -0.034820
 C        -0.949464         0.531148         0.330983
 O         0.318093         0.599286        -0.063996
 C        -1.585322        -0.882222         0.139101
 H        -4.495312        -1.049202         1.352741
 H        -2.620526        -0.599902         3.367107
 H        -1.158110        -1.305378         2.458415
 H        -0.887118         1.560056         2.443279
 H        -3.615175         1.414534         1.662897
 H        -2.309872         1.502065        -1.056452
 H        -1.570588         2.560518         0.064817
 H         0.532630        -0.309945        -0.392626
 H        -1.817940        -0.995688        -0.930097
 H        -1.076996        -1.782169         0.488020
