19
Iteration:  3058
 O        -3.807328        -1.603152         1.227500
 C        -2.790234        -0.634006         1.131250
 C        -1.985032        -0.484572         2.369944
 C        -1.322726         0.716845         1.744571
 C        -2.725020         1.062217         1.074055
 C        -2.049856         1.542769        -0.157587
 C        -0.956406         0.523027         0.295835
 O         0.405521         0.637110         0.042234
 C        -1.669533        -0.882477         0.049348
 H        -3.884510        -2.064600         0.325423
 H        -2.737080        -0.304187         3.138322
 H        -1.495212        -1.431196         2.646673
 H        -0.823663         1.489095         2.306303
 H        -3.277213         1.599249         1.782844
 H        -2.480146         1.493306        -1.196839
 H        -1.656216         2.586087         0.137182
 H         0.858673         1.150947         0.769954
 H        -1.910360        -1.057443        -0.989048
 H        -0.933841        -1.617273         0.348802
