19
Iteration:  2742charge 0 multiplicity 1
 O        -3.895587        -1.363989         1.228185
 C        -2.690113        -0.680245         1.002992
 C        -1.805035        -0.572178         2.363576
 C        -1.507150         0.776410         1.829456
 C        -2.838651         0.825188         0.982485
 C        -1.972027         1.506543        -0.067719
 C        -0.931045         0.516186         0.486505
 O         0.415289         0.623775        -0.015971
 C        -1.629939        -0.808706        -0.065219
 H        -3.715530        -2.158081         1.804491
 H        -2.480007        -0.575421         3.205315
 H        -0.997364        -1.305600         2.464377
 H        -1.334474         1.837521         2.259870
 H        -3.734768         1.261418         1.588209
 H        -2.278630         1.333300        -1.077929
 H        -1.923443         2.569858         0.128624
 H         0.970661         0.928724         0.753307
 H        -1.922951        -0.516300        -1.076404
 H        -1.164816        -1.772365        -0.161046
