19
Iteration:  1526charge 0 multiplicity 1
 O        -3.814962        -1.523730         1.055988
 C        -2.728345        -0.607304         1.158692
 C        -1.911091        -0.486499         2.519325
 C        -1.396260         0.773930         1.842981
 C        -2.809020         0.953345         1.073086
 C        -2.031050         1.385710        -0.249738
 C        -0.898046         0.471184         0.345840
 O         0.365484         0.808640        -0.154677
 C        -1.591470        -0.923542         0.247233
 H        -4.624204        -0.927444         1.151979
 H        -2.554713        -0.326708         3.395533
 H        -1.216609        -1.279687         2.832787
 H        -0.967988         1.575080         2.328562
 H        -3.610613         1.518630         1.408980
 H        -2.626698         1.035492        -1.165997
 H        -1.760518         2.440295        -0.376757
 H         0.951022         0.202140         0.336431
 H        -1.810096        -1.426681        -0.677304
 H        -0.953551        -1.650085         0.759568
