19
Iteration:  2654
 O        -3.841296        -1.273466         0.915636
 C        -2.635979        -0.607154         1.172369
 C        -1.973781        -0.635836         2.541308
 C        -1.489628         0.794178         2.059472
 C        -2.780180         0.894885         1.214016
 C        -2.060536         1.403614        -0.074277
 C        -0.915739         0.528738         0.338856
 O         0.351608         0.565646        -0.311617
 C        -1.474708        -0.864944         0.225694
 H        -3.611439        -1.851639         0.148488
 H        -2.732948        -0.527945         3.294875
 H        -1.268006        -1.444995         2.738944
 H        -1.056704         1.659258         2.662402
 H        -3.711002         1.400201         1.736831
 H        -2.477378         1.279135        -1.050774
 H        -1.902663         2.475979        -0.079135
 H         0.472962         1.390583        -0.856924
 H        -1.790221        -0.993156        -0.826190
 H        -0.872166        -1.706136         0.509388
