19
Iteration:  3346
 O        -3.885546        -1.376219         1.174372
 C        -2.746816        -0.640267         1.072725
 C        -1.964861        -0.598202         2.442684
 C        -1.350728         0.726293         1.841359
 C        -2.794663         0.919285         1.044621
 C        -1.993308         1.437530        -0.130483
 C        -0.885486         0.464506         0.233890
 O         0.403221         0.837969        -0.007992
 C        -1.576113        -0.992083         0.117754
 H        -4.514184        -1.144971         0.489101
 H        -2.677286        -0.321062         3.228321
 H        -1.295787        -1.430357         2.610523
 H        -1.010420         1.476667         2.585592
 H        -3.772341         1.425845         1.412244
 H        -2.339368         1.379495        -1.222269
 H        -1.711910         2.492252         0.067172
 H         1.030841         0.553359         0.682428
 H        -1.962579        -1.258782        -0.847076
 H        -1.034734        -1.842255         0.532236
