19
Iteration:   412
 O        -3.798556        -1.516208         1.238023
 C        -2.703201        -0.651703         1.130431
 C        -1.803290        -0.608951         2.293958
 C        -1.478733         0.791049         1.833261
 C        -2.837581         0.961557         1.157446
 C        -2.069364         1.488946        -0.083324
 C        -0.969412         0.530806         0.309893
 O         0.422316         0.569357        -0.015569
 C        -1.624807        -0.756839        -0.034413
 H        -4.533323        -1.251717         0.655600
 H        -2.375795        -0.526621         3.218753
 H        -0.994739        -1.369586         2.378974
 H        -1.091617         1.640320         2.344167
 H        -3.609306         1.490458         1.542076
 H        -2.285083         1.515664        -1.159858
 H        -1.905750         2.514659         0.269448
 H         0.909677         1.100302         0.668278
 H        -2.026438        -0.873701        -1.067686
 H        -0.981016        -1.640629        -0.019292
