19
Iteration:  1430charge 0 multiplicity 1
 O        -3.669882        -1.692010         1.071299
 C        -2.696582        -0.679365         1.164344
 C        -2.003136        -0.387981         2.499983
 C        -1.462240         0.866114         1.874087
 C        -2.825549         1.039635         1.050851
 C        -2.008225         1.599629        -0.173036
 C        -0.939437         0.540961         0.361445
 O         0.388428         0.529046        -0.143042
 C        -1.651851        -0.833095         0.103542
 H        -4.165851        -1.670192         1.959626
 H        -2.746827        -0.253041         3.290446
 H        -1.331414        -1.194458         2.854642
 H        -1.120845         1.693363         2.410321
 H        -3.507937         1.681517         1.586912
 H        -2.307224         1.391656        -1.194790
 H        -1.767704         2.629980        -0.049657
 H         0.770211        -0.335868         0.041129
 H        -2.001334        -0.870090        -0.918082
 H        -1.019884        -1.702846         0.255236
