19
Iteration:  2854
 O        -3.906863        -1.423902         1.139731
 C        -2.729001        -0.616171         1.080364
 C        -1.980133        -0.548300         2.402636
 C        -1.423418         0.717959         1.812681
 C        -2.763014         0.984454         1.160261
 C        -2.015261         1.442424        -0.105304
 C        -0.902642         0.508222         0.380038
 O         0.417641         0.673281        -0.100626
 C        -1.521298        -0.932473         0.141735
 H        -4.091912        -2.014648         0.350269
 H        -2.635416        -0.266433         3.250288
 H        -1.344348        -1.373701         2.719465
 H        -0.919616         1.489880         2.346042
 H        -3.538281         1.435113         1.695094
 H        -2.429427         1.349423        -1.127600
 H        -1.775854         2.507784         0.052211
 H         0.421358         1.654224        -0.251166
 H        -1.723043        -1.103057        -0.956645
 H        -0.870160        -1.825942         0.503222
