19
Iteration:   627
 O        -3.939745        -1.296341         0.895617
 C        -2.690932        -0.649280         1.170663
 C        -1.819099        -0.615281         2.566204
 C        -1.342978         0.683533         1.887965
 C        -2.728534         0.950574         1.198849
 C        -2.171727         1.242708        -0.141851
 C        -0.892757         0.482961         0.369279
 O         0.342723         0.924360        -0.157734
 C        -1.497894        -1.013403         0.221575
 H        -4.610386        -0.556948         0.710095
 H        -2.386861        -0.287181         3.425540
 H        -1.065788        -1.402219         2.754501
 H        -0.949582         1.466569         2.459728
 H        -3.663072         1.411507         1.718219
 H        -2.775737         0.944193        -0.943275
 H        -1.764918         2.280292        -0.301596
 H         0.316925         0.721581        -1.107612
 H        -1.693094        -1.290385        -0.833619
 H        -0.877169        -1.793222         0.710890
