19
Iteration:  1847charge 0 multiplicity 1
 O        -3.794287        -1.441542         0.747389
 C        -2.710183        -0.630293         1.287615
 C        -2.021868        -0.549695         2.673155
 C        -1.376951         0.723771         1.918116
 C        -2.740645         0.945757         1.146536
 C        -2.049157         1.504912        -0.098682
 C        -0.916438         0.512708         0.324648
 O         0.316510         0.594734        -0.267271
 C        -1.553664        -0.847178         0.251313
 H        -3.820087        -2.262430         1.337049
 H        -2.580825        -0.061522         3.465133
 H        -1.369414        -1.365032         2.978238
 H        -0.701504         1.490503         2.405379
 H        -3.473779         1.602814         1.692641
 H        -2.528200         1.450239        -1.080372
 H        -1.784658         2.614150         0.099812
 H         0.392553         1.416808        -0.734761
 H        -1.994904        -1.156482        -0.690109
 H        -0.820762        -1.587275         0.470573
