19
Iteration:  1443charge 0 multiplicity 1
 O        -3.746318        -1.611211         1.023376
 C        -2.782783        -0.587374         1.142689
 C        -1.959892        -0.506155         2.559699
 C        -1.446663         0.807277         1.851224
 C        -2.756353         1.038122         1.090391
 C        -2.009875         1.446897        -0.219353
 C        -0.932402         0.508033         0.370847
 O         0.353854         0.685853        -0.208822
 C        -1.568479        -0.875088         0.220178
 H        -4.479463        -1.423908         1.581651
 H        -2.629168        -0.172577         3.325916
 H        -1.213740        -1.241173         2.850268
 H        -0.935117         1.652984         2.360703
 H        -3.687387         1.510708         1.535504
 H        -2.501262         1.267339        -1.148206
 H        -1.654348         2.486026        -0.179029
 H         0.950677         0.004079         0.200745
 H        -1.841056        -1.070687        -0.808164
 H        -1.001748        -1.670507         0.719031
