19
Iteration:  1894
 O        -3.912741        -1.312184         1.371704
 C        -2.679901        -0.669133         1.094020
 C        -1.748733        -0.690557         2.379109
 C        -1.472541         0.729207         1.795923
 C        -2.801527         0.891021         0.985848
 C        -2.020593         1.423296        -0.278206
 C        -0.983882         0.577910         0.282341
 O         0.424209         0.657269         0.164956
 C        -1.650272        -0.832813        -0.028854
 H        -4.150844        -1.863910         0.647615
 H        -2.301488        -0.786140         3.324562
 H        -0.867997        -1.299745         2.272067
 H        -1.287160         1.608388         2.359928
 H        -3.677362         1.345116         1.370886
 H        -2.367590         1.300731        -1.315808
 H        -1.808057         2.475512        -0.082190
 H         0.605702         1.488927         0.680212
 H        -1.892646        -0.823307        -1.065656
 H        -0.899926        -1.596590         0.144547
