19
Iteration:    55charge 0 multiplicity 1
 O        -3.594629        -1.818312         1.170141
 C        -2.733074        -0.693909         1.160473
 C        -2.019577        -0.469141         2.379488
 C        -1.528636         0.924450         1.867527
 C        -2.751451         1.127031         1.037093
 C        -1.916159         1.653892        -0.140041
 C        -0.946587         0.576913         0.351890
 O         0.312973         0.468844        -0.107457
 C        -1.688914        -0.747997         0.082917
 H        -4.328987        -1.605869         1.685280
 H        -2.534619        -0.645660         3.345722
 H        -1.232036        -1.254316         2.524967
 H        -1.152813         1.745691         2.450018
 H        -3.639462         1.625872         1.404825
 H        -2.198155         1.713502        -1.211634
 H        -1.465857         2.610072         0.160334
 H         0.636488        -0.310672         0.349487
 H        -2.234881        -0.601000        -0.861932
 H        -1.076514        -1.632362        -0.054572
