19
Iteration:  4547
 O        -3.955997        -1.448492         1.069057
 C        -2.777944        -0.647035         1.104246
 C        -1.948791        -0.504034         2.437901
 C        -1.409067         0.772251         1.824944
 C        -2.725505         1.017700         1.093571
 C        -2.077910         1.479111        -0.180660
 C        -0.901157         0.443191         0.414717
 O         0.515585         0.659840         0.041066
 C        -1.559507        -0.913076         0.157422
 H        -4.392884        -1.548159         0.204579
 H        -2.493558        -0.326865         3.395179
 H        -1.240934        -1.399316         2.692212
 H        -0.847427         1.557781         2.335399
 H        -3.493103         1.554985         1.601042
 H        -2.499932         1.190086        -1.192592
 H        -1.661618         2.454295        -0.080535
 H         0.592557         0.754854        -0.938090
 H        -1.924501        -1.127511        -0.819092
 H        -0.944173        -1.750017         0.497316
