19
Iteration:  2170
 O        -3.951678        -1.324984         0.997846
 C        -2.619490        -0.697068         1.201078
 C        -1.942632        -0.498372         2.586173
 C        -1.466122         0.759049         1.867024
 C        -2.723215         0.844389         1.082666
 C        -2.088827         1.293260        -0.217949
 C        -0.859279         0.497873         0.353384
 O         0.274111         0.809211        -0.200674
 C        -1.382348        -0.937625         0.296757
 H        -4.372473        -0.585104         0.593047
 H        -2.790916        -0.174463         3.229456
 H        -1.341678        -1.350336         2.975298
 H        -1.122089         1.712357         2.307265
 H        -3.648581         1.382176         1.402901
 H        -2.416956         1.072448        -1.274648
 H        -1.862429         2.383673        -0.273653
 H         0.859956         0.030534        -0.066209
 H        -1.563492        -1.169215        -0.758659
 H        -0.671381        -1.666656         0.750890
