19
Iteration:  3549
 O        -3.792340        -1.522162         1.208613
 C        -2.769406        -0.592774         1.097158
 C        -1.935436        -0.453175         2.413292
 C        -1.480013         0.776760         1.820762
 C        -2.885699         0.934511         1.028270
 C        -1.903032         1.503190        -0.137413
 C        -0.944375         0.496611         0.392204
 O         0.420692         0.537019        -0.065024
 C        -1.558104        -0.869122         0.057627
 H        -4.673600        -1.343792         0.884346
 H        -2.681456        -0.287423         3.258409
 H        -1.118683        -1.215298         2.498596
 H        -1.322281         1.746753         2.403554
 H        -3.852978         1.470223         1.121382
 H        -2.083692         1.686672        -1.208308
 H        -1.713315         2.573160         0.213626
 H         1.045682         0.718949         0.674815
 H        -1.595643        -0.900891        -1.021178
 H        -1.093310        -1.731548         0.486737
