19
Iteration:  1570
 O        -3.557651        -1.701169         1.178703
 C        -2.732465        -0.640798         1.157126
 C        -2.016166        -0.364411         2.501898
 C        -1.571453         0.898533         1.850988
 C        -2.833567         1.034865         0.994647
 C        -1.952120         1.639060        -0.166663
 C        -0.964030         0.541870         0.297323
 O         0.431423         0.418555        -0.040496
 C        -1.733915        -0.750179        -0.005366
 H        -3.460605        -2.241264         2.023807
 H        -2.770917        -0.199722         3.291598
 H        -1.402982        -1.141782         2.966924
 H        -1.066546         1.566964         2.423655
 H        -3.688373         1.464188         1.351606
 H        -1.970682         1.669876        -1.298148
 H        -1.914055         2.695799         0.086862
 H         0.401444        -0.558436        -0.016094
 H        -2.122288        -0.875818        -1.000044
 H        -1.085591        -1.649184         0.067095
