19
Iteration:  1004charge 0 multiplicity 1
 O        -3.856482        -1.609167         1.067261
 C        -2.772501        -0.609545         1.160657
 C        -2.000604        -0.480329         2.501918
 C        -1.372270         0.777304         1.963210
 C        -2.733422         1.016423         1.180339
 C        -1.963503         1.504427        -0.043838
 C        -0.855567         0.448904         0.331255
 O         0.288460         0.690433        -0.328270
 C        -1.556740        -0.913588         0.142304
 H        -4.149053        -1.698052         0.120024
 H        -2.656008        -0.334271         3.375400
 H        -1.388802        -1.329641         2.824009
 H        -0.840884         1.583352         2.489948
 H        -3.565934         1.611878         1.702219
 H        -2.507237         1.468216        -1.020280
 H        -1.689291         2.546122         0.055470
 H         1.006084         1.233637         0.076555
 H        -1.847922        -0.992575        -0.912256
 H        -0.972030        -1.801516         0.303202
