19
Iteration:   886charge 0 multiplicity 1
 O        -3.669701        -1.733641         1.349328
 C        -2.790477        -0.743223         1.059411
 C        -2.016756        -0.463954         2.360730
 C        -1.456898         0.890911         1.821750
 C        -2.764212         1.064838         0.997683
 C        -1.999782         1.673768        -0.074302
 C        -0.954625         0.560698         0.298244
 O         0.489714         0.503880         0.002119
 C        -1.714343        -0.768139        -0.011221
 H        -4.344499        -1.833153         0.728707
 H        -2.723202        -0.302901         3.267403
 H        -1.239830        -1.286981         2.578514
 H        -0.924736         1.598873         2.310251
 H        -3.700489         1.423612         1.590485
 H        -2.519807         1.934700        -0.998230
 H        -1.690949         2.700140         0.422528
 H         0.674187        -0.441476        -0.089389
 H        -2.058654        -0.576101        -1.127845
 H        -0.969815        -1.608612        -0.053015
