19
Iteration:  3744charge 0 multiplicity 1
 O        -3.867461        -1.420911         1.032657
 C        -2.686229        -0.690025         1.122148
 C        -1.966485        -0.530199         2.448595
 C        -1.472081         0.768282         1.880716
 C        -2.738224         0.854435         1.126534
 C        -1.980734         1.516557        -0.163923
 C        -0.857764         0.493588         0.437886
 O         0.374031         0.649484        -0.150922
 C        -1.597098        -0.859712         0.107162
 H        -4.576869        -0.748017         1.070143
 H        -2.622430        -0.337278         3.295709
 H        -1.350022        -1.360131         2.718105
 H        -0.921546         1.679219         2.325724
 H        -3.677614         1.265076         1.538906
 H        -2.397168         1.361067        -1.125386
 H        -1.825823         2.545471         0.130156
 H         0.987109         0.495209         0.631748
 H        -1.838200        -0.930375        -0.960101
 H        -1.048135        -1.749320         0.420963
