19
Iteration:  2325
 O        -3.938880        -1.402928         0.985003
 C        -2.740984        -0.641192         1.217604
 C        -2.048086        -0.483745         2.549256
 C        -1.264680         0.732816         1.834819
 C        -2.682528         0.889971         1.139440
 C        -2.010968         1.287305        -0.254945
 C        -0.905291         0.445465         0.272917
 O         0.368034         0.967468        -0.059432
 C        -1.576058        -1.022518         0.312380
 H        -4.239336        -1.099276         0.053633
 H        -2.671373        -0.073601         3.367556
 H        -1.445002        -1.310049         2.968759
 H        -0.676554         1.391368         2.372213
 H        -3.403329         1.294328         1.769560
 H        -2.492291         0.913723        -1.194528
 H        -1.757589         2.384721        -0.230044
 H         0.609654         0.497037        -0.888528
 H        -1.920535        -1.153868        -0.725064
 H        -0.879841        -1.847446         0.517753
