19
Iteration:   999charge 0 multiplicity 1
 O        -3.843873        -1.572316         1.032877
 C        -2.765829        -0.583055         1.168984
 C        -2.024961        -0.494890         2.549924
 C        -1.389889         0.733127         1.960368
 C        -2.732997         1.057208         1.182961
 C        -1.962193         1.442728        -0.016996
 C        -0.877983         0.405981         0.313397
 O         0.282031         0.725578        -0.366057
 C        -1.526859        -0.906787         0.164866
 H        -4.058670        -1.514252         0.073558
 H        -2.645521        -0.231991         3.426132
 H        -1.351811        -1.364976         2.715963
 H        -0.807237         1.573255         2.495670
 H        -3.553311         1.445367         1.712461
 H        -2.566027         1.251536        -0.960804
 H        -1.539692         2.487165        -0.027280
 H         0.853123         1.349121         0.073232
 H        -1.865223        -1.017690        -0.884454
 H        -0.863743        -1.769323         0.490862
