19
Iteration:  1302charge 0 multiplicity 1
 O        -3.781463        -1.401651         0.757545
 C        -2.680375        -0.612344         1.213421
 C        -2.039817        -0.655859         2.529997
 C        -1.320294         0.741219         1.971995
 C        -2.699166         1.020354         1.292018
 C        -2.127506         1.385307        -0.035166
 C        -0.927945         0.480486         0.311893
 O         0.277701         0.773543        -0.372183
 C        -1.463183        -0.910806         0.410709
 H        -4.493902        -0.831556         0.581098
 H        -2.690468        -0.269093         3.321218
 H        -1.451285        -1.493464         2.902054
 H        -0.751173         1.475195         2.402268
 H        -3.480057         1.402147         1.918176
 H        -2.720036         1.198327        -0.947878
 H        -1.680137         2.442806        -0.087230
 H         0.176682         0.298089        -1.245625
 H        -1.711971        -1.373440        -0.556171
 H        -0.784898        -1.656998         0.869916
