19
Iteration:  3087
 O        -3.820895        -1.391884         1.156858
 C        -2.652224        -0.691761         1.135188
 C        -1.728185        -0.567298         2.411299
 C        -1.492501         0.845746         1.824298
 C        -2.865069         0.893542         1.010788
 C        -2.143832         1.459995        -0.193974
 C        -0.964744         0.544277         0.383021
 O         0.448707         0.527526         0.076812
 C        -1.649305        -0.826963         0.056122
 H        -4.367343        -0.861099         0.551609
 H        -2.396542        -0.746126         3.262461
 H        -0.910866        -1.330572         2.355564
 H        -1.176573         1.810673         2.317283
 H        -3.747807         1.327362         1.617002
 H        -2.431391         1.161233        -1.219167
 H        -1.980548         2.541678        -0.156139
 H         1.041331         0.984584         0.689201
 H        -1.962100        -0.792713        -1.067086
 H        -0.912992        -1.645552         0.069483
