19
Iteration:  3221
 O        -3.982131        -1.346476         1.189504
 C        -2.687248        -0.657865         1.096333
 C        -1.854221        -0.586231         2.363761
 C        -1.348143         0.790600         1.789802
 C        -2.757004         0.988968         1.121316
 C        -2.060681         1.384501        -0.225755
 C        -0.956249         0.474623         0.267992
 O         0.431970         0.734809         0.256680
 C        -1.605752        -0.910872        -0.008792
 H        -3.947544        -2.139259         0.682171
 H        -2.481483        -0.498687         3.254246
 H        -0.988095        -1.192305         2.708096
 H        -0.732866         1.478764         2.337784
 H        -3.635188         1.347337         1.543615
 H        -2.649979         1.095427        -1.081256
 H        -1.859561         2.454135        -0.362870
 H         0.746925         0.895120        -0.627717
 H        -2.174688        -1.110523        -0.996006
 H        -0.997031        -1.820416         0.235202
