19
Iteration:  2639
 O        -3.953093        -1.399892         1.003647
 C        -2.730794        -0.690871         1.109817
 C        -1.974875        -0.544370         2.493507
 C        -1.441755         0.745230         1.976723
 C        -2.754768         0.954771         1.124926
 C        -1.998014         1.466907         0.025940
 C        -0.853362         0.547407         0.361375
 O         0.350341         0.612198        -0.348000
 C        -1.446487        -0.873568         0.240248
 H        -4.174243        -1.713471         0.156092
 H        -2.625607        -0.396078         3.401007
 H        -1.260436        -1.336127         2.779937
 H        -0.961849         1.390545         2.683771
 H        -3.781154         1.231012         1.306489
 H        -2.496669         1.317695        -0.972727
 H        -1.640543         2.482948         0.241869
 H         0.465127         1.570914        -0.399584
 H        -1.582676        -1.226148        -0.789452
 H        -0.651800        -1.468705         0.777651
