19
Iteration:   802charge 0 multiplicity 1
 O        -4.056033        -1.118436         1.018582
 C        -2.649409        -0.672119         1.227774
 C        -1.969921        -0.655700         2.506625
 C        -1.301803         0.680845         1.887329
 C        -2.675729         0.875120         1.079106
 C        -2.044067         1.267292        -0.212462
 C        -0.871869         0.420188         0.307847
 O         0.224102         1.016083        -0.154504
 C        -1.392781        -1.050529         0.170334
 H        -4.172236        -2.117437         1.248806
 H        -2.639421        -0.334584         3.261305
 H        -1.443370        -1.427201         3.038377
 H        -0.850337         1.383914         2.585301
 H        -3.648317         1.316554         1.445680
 H        -2.618657         1.000282        -1.088834
 H        -1.853797         2.385381        -0.260413
 H         1.063788         0.782029         0.307450
 H        -1.689560        -1.335199        -0.804497
 H        -0.729091        -1.857062         0.504460
