19
Iteration:  1259charge 0 multiplicity 1
 O        -3.831984        -1.504750         0.989961
 C        -2.711738        -0.678080         1.139143
 C        -1.774993        -0.547694         2.452082
 C        -1.387363         0.827828         1.848684
 C        -2.806928         0.902310         1.193316
 C        -2.055035         1.532641        -0.078161
 C        -0.953309         0.527347         0.357524
 O         0.407074         0.655162        -0.055863
 C        -1.701482        -0.803809        -0.011295
 H        -4.341796        -1.484604         1.795553
 H        -2.561954        -0.542706         3.262528
 H        -1.064633        -1.373839         2.715309
 H        -0.936822         1.566241         2.410785
 H        -3.689298         1.350905         1.586638
 H        -2.378310         1.648637        -1.154395
 H        -1.765718         2.581917         0.301712
 H         0.813717        -0.251026        -0.097473
 H        -2.205663        -0.728182        -1.023104
 H        -1.128807        -1.779729         0.106267
