19
Iteration:  1762
 O        -3.888926        -1.479075         1.348517
 C        -2.768605        -0.656251         1.072182
 C        -1.848405        -0.604068         2.317520
 C        -1.404588         0.786314         1.782558
 C        -2.765870         1.032609         1.123959
 C        -2.005871         1.523879        -0.237659
 C        -0.919253         0.410559         0.283947
 O         0.431605         0.740275         0.155833
 C        -1.675090        -0.955081        -0.074361
 H        -4.014755        -2.097443         0.646943
 H        -2.449563        -0.372521         3.217022
 H        -1.134277        -1.357724         2.638156
 H        -0.690488         1.476321         2.281310
 H        -3.683236         1.407245         1.533663
 H        -2.476086         1.259869        -1.164516
 H        -1.596435         2.520384        -0.226372
 H         0.454723         1.708271         0.377038
 H        -1.996650        -0.799036        -1.081393
 H        -1.195759        -1.864036         0.174788
