19
Iteration:  4010charge 0 multiplicity 1
 O        -3.907998        -1.508533         1.048904
 C        -2.686101        -0.679885         1.120479
 C        -1.864903        -0.580125         2.427115
 C        -1.488776         0.788270         1.871613
 C        -2.822276         0.960523         1.017981
 C        -1.992516         1.556520        -0.062014
 C        -0.878279         0.608010         0.302538
 O         0.501783         0.585690         0.068049
 C        -1.698252        -0.764114        -0.034500
 H        -4.099035        -1.615738         2.030809
 H        -2.600618        -0.438464         3.270972
 H        -1.115105        -1.360589         2.650579
 H        -1.092652         1.450624         2.634436
 H        -3.752393         1.384480         1.424449
 H        -2.334049         1.448060        -1.127638
 H        -1.733000         2.621193         0.103953
 H         0.734918        -0.398115         0.063444
 H        -2.027241        -0.793004        -1.094553
 H        -1.057146        -1.681098         0.120191
