19
Iteration:   341charge 0 multiplicity 1
 O        -3.829051        -1.426733         1.060680
 C        -2.657410        -0.687050         1.162253
 C        -1.880290        -0.664291         2.454002
 C        -1.452025         0.769296         1.891248
 C        -2.793841         0.922475         1.173530
 C        -2.043359         1.550391        -0.068888
 C        -0.927724         0.600231         0.398436
 O         0.352380         0.566740        -0.232636
 C        -1.592021        -0.836723         0.124643
 H        -4.108338        -1.563626         0.137486
 H        -2.520243        -0.522762         3.343564
 H        -1.158997        -1.452358         2.578994
 H        -1.058258         1.486958         2.667053
 H        -3.584275         1.507769         1.860638
 H        -2.529782         1.454767        -1.074237
 H        -1.936410         2.675326         0.214499
 H         0.719104         1.479546        -0.375488
 H        -1.935315        -1.019128        -0.893960
 H        -0.851579        -1.628077         0.341178
