19
Iteration:   866
 O        -3.673253        -1.646248         1.166161
 C        -2.693294        -0.603769         1.147963
 C        -1.881749        -0.524124         2.508188
 C        -1.510184         0.806930         1.845857
 C        -2.880602         1.005640         1.081275
 C        -1.934098         1.637506        -0.145798
 C        -0.944935         0.569779         0.361112
 O         0.325446         0.493962        -0.088001
 C        -1.679522        -0.748513         0.023373
 H        -4.071833        -1.532971         0.263481
 H        -2.436760        -0.304286         3.416344
 H        -1.124664        -1.290613         2.777345
 H        -1.173889         1.624813         2.369602
 H        -3.809646         1.499134         1.542741
 H        -2.145609         1.507195        -1.225753
 H        -1.658437         2.765432        -0.023609
 H         0.649783        -0.378303         0.130695
 H        -2.068245        -1.021068        -0.981272
 H        -1.052637        -1.639607         0.292753
