19
Iteration:  4215
 O        -3.928478        -1.447384         0.853326
 C        -2.769133        -0.608465         1.200612
 C        -1.873922        -0.592750         2.480968
 C        -1.371009         0.750477         1.833767
 C        -2.748572         0.977324         1.153196
 C        -2.061670         1.465664        -0.163348
 C        -0.912774         0.496810         0.316821
 O         0.535669         0.685636         0.117117
 C        -1.671953        -0.835307         0.056538
 H        -4.415055        -1.710100         1.688662
 H        -2.468229        -0.258069         3.365112
 H        -1.322263        -1.499266         2.682825
 H        -0.836637         1.497734         2.471292
 H        -3.560229         1.382690         1.797556
 H        -2.648798         1.357379        -1.058092
 H        -1.945797         2.571727        -0.022601
 H         0.823532         0.189354        -0.688367
 H        -2.136542        -0.956515        -0.889698
 H        -1.042115        -1.709125         0.251186
