19
Iteration:    59
 O        -3.627382        -1.764152         1.149122
 C        -2.759037        -0.694512         1.156705
 C        -1.949206        -0.511492         2.420123
 C        -1.518933         0.906644         1.846014
 C        -2.758022         1.082257         1.024307
 C        -1.903400         1.655058        -0.176796
 C        -0.946918         0.605926         0.363401
 O         0.310827         0.499447        -0.092621
 C        -1.693348        -0.783627         0.094705
 H        -4.289116        -1.591126         1.918370
 H        -2.667584        -0.618829         3.274175
 H        -1.077588        -1.173533         2.465264
 H        -1.092387         1.681608         2.470349
 H        -3.769806         1.584500         1.324917
 H        -2.211438         1.616803        -1.188057
 H        -1.638552         2.726227         0.238185
 H         0.543871        -0.377104         0.317706
 H        -2.105135        -0.543078        -0.892444
 H        -1.026905        -1.683154         0.091945
