19
Iteration:  3497
 O        -3.916967        -1.350667         1.055173
 C        -2.694282        -0.652111         1.155438
 C        -1.947007        -0.460538         2.446180
 C        -1.367847         0.745212         1.753251
 C        -2.761422         0.926984         1.131862
 C        -2.076960         1.287520        -0.176381
 C        -0.904125         0.419115         0.311151
 O         0.389465         0.775843         0.028052
 C        -1.561398        -0.880865         0.166091
 H        -4.292246        -1.073354         0.193918
 H        -2.448637        -0.259463         3.412728
 H        -1.395779        -1.401044         2.656224
 H        -0.902853         1.636182         2.156081
 H        -3.694808         1.410090         1.585521
 H        -2.550902         1.103039        -1.136850
 H        -1.770014         2.336382        -0.137780
 H         1.155350         0.264901         0.409506
 H        -1.709142        -1.198672        -0.913235
 H        -0.948916        -1.720660         0.665452
