19
Iteration:  3242
 O        -3.873301        -1.386941         1.170502
 C        -2.757557        -0.598155         1.137271
 C        -1.884912        -0.554974         2.448767
 C        -1.356331         0.683823         1.780275
 C        -2.754494         0.977883         1.017785
 C        -2.029180         1.366532        -0.207074
 C        -0.938485         0.418826         0.391086
 O         0.487405         0.887662         0.162337
 C        -1.749734        -0.927147         0.013693
 H        -3.691251        -2.095454         0.492664
 H        -2.395797        -0.373803         3.384807
 H        -1.384430        -1.551503         2.593827
 H        -1.013518         1.553731         2.253953
 H        -3.454633         1.522865         1.562619
 H        -2.489806         1.201341        -1.150285
 H        -1.629858         2.363223        -0.226412
 H         0.811628         0.321447        -0.607243
 H        -2.264848        -0.831002        -1.042715
 H        -1.414631        -1.991806         0.120330
