19
Iteration:  3144charge 0 multiplicity 1
 O        -3.790552        -1.518912         0.914832
 C        -2.802355        -0.589631         1.212717
 C        -2.084941        -0.487831         2.477140
 C        -1.297576         0.698798         1.884017
 C        -2.694284         0.989300         1.147619
 C        -2.006141         1.472826        -0.122569
 C        -0.921743         0.430444         0.263548
 O         0.401564         0.716561        -0.106178
 C        -1.628532        -0.899673         0.218267
 H        -4.090476        -1.896394         1.766503
 H        -2.658684         0.030178         3.252077
 H        -1.812384        -1.481254         2.922473
 H        -0.688845         1.271841         2.567903
 H        -3.565051         1.507961         1.509691
 H        -2.560878         1.154307        -1.036406
 H        -1.686310         2.566187        -0.186609
 H         0.477268         1.431366        -0.776829
 H        -1.862028        -1.034540        -0.893339
 H        -0.849182        -1.568397         0.631307
