19
Iteration:  3825
 O        -3.902260        -1.488436         0.906904
 C        -2.749365        -0.628031         1.204838
 C        -1.966355        -0.562584         2.523376
 C        -1.492213         0.789582         1.947533
 C        -2.757942         0.934745         1.057763
 C        -1.966335         1.537818        -0.172158
 C        -0.849782         0.556028         0.366817
 O         0.449286         0.643403        -0.133890
 C        -1.561687        -0.868294         0.171398
 H        -4.273292        -1.521997         1.842229
 H        -2.646606        -0.429828         3.361991
 H        -1.089753        -1.209808         2.708473
 H        -1.299963         1.644343         2.510557
 H        -3.563749         1.509183         1.537211
 H        -2.423570         1.548567        -1.184751
 H        -1.690139         2.609023        -0.074915
 H         0.609811        -0.343138        -0.254227
 H        -1.934831        -1.074515        -0.813766
 H        -1.063794        -1.801284         0.465328
