19
Iteration:  3490charge 0 multiplicity 1
 O        -3.932445        -1.326255         1.047160
 C        -2.726784        -0.660113         1.167675
 C        -1.942798        -0.485443         2.438084
 C        -1.405190         0.785612         1.773703
 C        -2.751696         0.922972         1.137512
 C        -2.047798         1.343765        -0.177068
 C        -0.902448         0.422903         0.401718
 O         0.373229         0.785536        -0.048347
 C        -1.490309        -0.951997         0.176773
 H        -4.280797        -1.186596         0.106766
 H        -2.495191        -0.293474         3.347381
 H        -1.208733        -1.279387         2.643321
 H        -1.006464         1.603402         2.322618
 H        -3.724713         1.302700         1.392440
 H        -2.613059         1.059669        -1.115539
 H        -1.669811         2.351429        -0.076128
 H         0.948787        -0.002410         0.273150
 H        -1.668698        -1.186241        -0.876410
 H        -0.884221        -1.722281         0.655181
