19
Iteration:  1353charge 0 multiplicity 1
 O        -3.878457        -1.400319         1.074289
 C        -2.697067        -0.645108         1.192847
 C        -1.828675        -0.551012         2.424041
 C        -1.422081         0.746768         1.787326
 C        -2.769749         0.911434         1.114378
 C        -2.097827         1.397763        -0.205420
 C        -0.929083         0.525655         0.308929
 O         0.434208         0.752828         0.106562
 C        -1.589792        -0.978664         0.062505
 H        -4.553190        -1.000032         1.644985
 H        -2.249524        -0.321808         3.381462
 H        -1.053437        -1.308877         2.457482
 H        -1.035293         1.641278         2.242990
 H        -3.603727         1.385796         1.635058
 H        -2.559476         1.109621        -1.137552
 H        -2.037699         2.444526        -0.175363
 H         0.410418         0.929361        -0.854183
 H        -1.999652        -1.084531        -0.930541
 H        -0.944882        -1.800886         0.304757
