19
Iteration:  1949charge 0 multiplicity 1
 O        -3.732423        -1.579086         1.010879
 C        -2.695327        -0.640547         1.185241
 C        -1.977298        -0.447262         2.496836
 C        -1.399584         0.793235         1.799310
 C        -2.810090         1.007517         1.070323
 C        -2.024714         1.536227        -0.217727
 C        -0.957894         0.536032         0.340846
 O         0.372655         0.593608        -0.079866
 C        -1.630805        -0.881854         0.179804
 H        -4.328630        -1.447067         1.743159
 H        -2.593265        -0.168182         3.385307
 H        -1.325149        -1.251668         2.874718
 H        -0.908033         1.579659         2.349222
 H        -3.706986         1.464618         1.497805
 H        -2.357213         1.243615        -1.238043
 H        -1.851977         2.595904        -0.080262
 H         0.925925        -0.027147         0.461472
 H        -1.944169        -0.814933        -0.841135
 H        -0.954214        -1.731829         0.356568
