19
Iteration:   211
 O        -3.651829        -1.731315         1.355134
 C        -2.722175        -0.686869         1.114983
 C        -1.848998        -0.511877         2.333369
 C        -1.451955         0.828946         1.766731
 C        -2.855858         1.133958         1.035988
 C        -2.003155         1.595121        -0.148754
 C        -1.006916         0.574163         0.291079
 O         0.400211         0.399957         0.133776
 C        -1.752680        -0.716416        -0.082894
 H        -4.218891        -1.756518         0.497999
 H        -2.346111        -0.617292         3.297038
 H        -1.102301        -1.292853         2.365804
 H        -1.053156         1.826677         2.108455
 H        -3.783387         1.692330         1.529543
 H        -2.364570         1.726011        -1.098277
 H        -1.510020         2.612866         0.099427
 H         0.814595         1.189310         0.552817
 H        -2.240012        -0.521304        -1.037228
 H        -1.216527        -1.663797        -0.178560
