19
Iteration:  2101
 O        -3.844496        -1.445169         1.185924
 C        -2.714838        -0.644690         1.140329
 C        -1.934600        -0.537720         2.476594
 C        -1.582962         0.857811         1.796438
 C        -2.857134         0.932174         0.942667
 C        -2.023469         1.522017        -0.165198
 C        -0.886871         0.504957         0.348436
 O         0.470379         0.561595        -0.101357
 C        -1.510593        -0.867514         0.099889
 H        -3.747518        -2.130374         1.858400
 H        -2.683411        -0.303008         3.224541
 H        -1.078179        -1.142758         2.745667
 H        -1.204224         1.711249         2.492660
 H        -3.846230         1.369589         1.343113
 H        -2.416923         1.527948        -1.211805
 H        -1.867858         2.583659         0.041273
 H         1.044276         0.551820         0.669621
 H        -1.954344        -1.005768        -0.878623
 H        -0.885719        -1.712647         0.354172
