19
Iteration:   933charge 0 multiplicity 1
 O        -3.912146        -1.394067         1.111038
 C        -2.682600        -0.614392         1.176448
 C        -1.767484        -0.568469         2.427007
 C        -1.386620         0.784189         1.824882
 C        -2.758651         0.914111         1.103365
 C        -2.111244         1.444672        -0.167951
 C        -0.953476         0.484639         0.342351
 O         0.407281         0.731090         0.065668
 C        -1.639369        -0.936751         0.105633
 H        -4.168109        -1.474384         0.165787
 H        -2.286520        -0.562766         3.388856
 H        -0.961928        -1.344391         2.445020
 H        -0.952926         1.628950         2.397508
 H        -3.676638         1.318099         1.500224
 H        -2.551983         1.216072        -1.173854
 H        -1.809567         2.540072        -0.129995
 H         0.531442         0.617766        -0.917869
 H        -2.111222        -1.019639        -0.888354
 H        -1.091878        -1.884989         0.332681
