19
Iteration:  2481
 O        -3.880457        -1.316556         0.875844
 C        -2.637761        -0.685153         1.181854
 C        -1.941226        -0.554741         2.613678
 C        -1.465918         0.819686         1.959743
 C        -2.758263         0.946411         1.220461
 C        -2.073264         1.387584        -0.118986
 C        -0.989431         0.470448         0.256367
 O         0.342673         0.623103        -0.249290
 C        -1.417512        -0.955075         0.260677
 H        -4.063216        -1.135037        -0.041094
 H        -2.716611        -0.318434         3.379494
 H        -1.240729        -1.388751         2.969037
 H        -0.935890         1.748130         2.410094
 H        -3.664626         1.556320         1.611598
 H        -2.680650         1.205157        -1.052369
 H        -1.513191         2.369465         0.061043
 H         0.659603         1.523499        -0.194805
 H        -1.845253        -1.392495        -0.700662
 H        -0.747694        -1.709855         0.712898
