19
Iteration:  1089
 O        -3.869548        -1.446912         1.195406
 C        -2.746366        -0.652039         1.129963
 C        -1.759018        -0.690745         2.394627
 C        -1.377084         0.699553         1.816195
 C        -2.783270         0.899915         1.077092
 C        -2.132863         1.517389        -0.123417
 C        -0.924071         0.535317         0.357381
 O         0.444369         0.652172         0.021040
 C        -1.678424        -0.786939        -0.002819
 H        -4.594318        -1.122407         0.693253
 H        -2.387923        -0.625461         3.293965
 H        -0.993362        -1.465960         2.370643
 H        -0.902087         1.579080         2.467889
 H        -3.629988         1.395767         1.589416
 H        -2.557701         1.474639        -1.177488
 H        -1.797889         2.510780         0.175401
 H         0.657631         1.588537        -0.154597
 H        -1.985154        -0.807891        -1.047042
 H        -0.942110        -1.572992         0.216650
