19
Iteration:  4744charge 0 multiplicity 1
 O        -3.895214        -1.410180         0.975770
 C        -2.757269        -0.561934         1.180208
 C        -2.025050        -0.570579         2.480441
 C        -1.362630         0.722382         1.761217
 C        -2.759423         1.054075         1.161898
 C        -2.088320         1.431001        -0.124672
 C        -0.897306         0.469593         0.278022
 O         0.460673         0.737305         0.005271
 C        -1.527248        -1.020452         0.266511
 H        -4.142873        -1.539767         0.012984
 H        -2.622660        -0.286581         3.325862
 H        -1.398567        -1.434107         2.778273
 H        -0.733841         1.493129         2.320289
 H        -3.420075         1.682189         1.710718
 H        -2.595415         1.239068        -1.082674
 H        -1.803438         2.457327        -0.036594
 H         0.719632         0.576796        -0.961507
 H        -1.855129        -1.291126        -0.796674
 H        -0.939493        -1.896713         0.668598
