19
Iteration:  4980charge 0 multiplicity 1
 O        -3.872337        -1.497954         1.058351
 C        -2.779909        -0.706300         1.127747
 C        -1.871343        -0.602838         2.373851
 C        -1.499986         0.803581         1.883965
 C        -2.756280         0.949698         1.075599
 C        -1.943591         1.576451        -0.129568
 C        -1.008828         0.564688         0.432503
 O         0.512149         0.540663         0.006488
 C        -1.662826        -0.844086         0.032611
 H        -4.603448        -1.296142         1.703474
 H        -2.496418        -0.583411         3.325003
 H        -0.986572        -1.244812         2.602282
 H        -1.125711         1.607203         2.562416
 H        -3.569579         1.558687         1.371391
 H        -2.011982         1.432421        -1.181836
 H        -1.605849         2.574163         0.166233
 H         0.635050         1.333735        -0.548334
 H        -2.018563        -0.793482        -0.982875
 H        -0.931665        -1.660568         0.057034
