19
Iteration:  4761charge 0 multiplicity 1
 O        -3.910474        -1.402963         1.132987
 C        -2.700525        -0.659607         1.047900
 C        -1.957466        -0.523592         2.452730
 C        -1.391263         0.731326         1.912337
 C        -2.687354         1.029391         1.072538
 C        -1.997513         1.469492        -0.220036
 C        -0.946165         0.361914         0.354562
 O         0.399273         0.788914         0.077224
 C        -1.628214        -0.953376         0.107578
 H        -4.085883        -1.469255         0.144334
 H        -2.634226        -0.256210         3.317612
 H        -1.342870        -1.388904         2.695847
 H        -0.823175         1.439495         2.454909
 H        -3.680003         1.301633         1.540404
 H        -2.584625         1.294625        -1.144330
 H        -1.418314         2.467136        -0.196363
 H         0.484556         0.395455        -0.855000
 H        -1.833483        -1.203177        -0.911753
 H        -0.952793        -1.697628         0.544945
