19
Iteration:   296charge 0 multiplicity 1
 O        -3.777219        -1.403023         0.808798
 C        -2.712180        -0.663184         1.254401
 C        -2.067375        -0.573006         2.586798
 C        -1.315473         0.669292         1.921068
 C        -2.669941         0.967902         1.302357
 C        -2.072826         1.389553        -0.004569
 C        -0.933935         0.473715         0.330850
 O         0.241021         0.736438        -0.457896
 C        -1.496933        -0.909287         0.344550
 H        -3.801922        -0.949914        -0.032189
 H        -2.773893        -0.205598         3.358767
 H        -1.460346        -1.408011         2.913749
 H        -0.878741         1.526208         2.439622
 H        -3.537869         1.483544         1.970460
 H        -2.602340         1.276359        -1.036170
 H        -1.564008         2.436800        -0.011403
 H         0.421944         1.705727        -0.265484
 H        -1.895408        -1.197444        -0.639112
 H        -0.856150        -1.752268         0.522907
