19
Iteration:  1575charge 0 multiplicity 1
 O        -3.569738        -1.711301         1.183693
 C        -2.737239        -0.628672         1.170912
 C        -2.016173        -0.389580         2.480052
 C        -1.556593         0.916541         1.829651
 C        -2.848135         1.047248         1.025179
 C        -1.964471         1.629371        -0.234753
 C        -0.934441         0.533644         0.290545
 O         0.405528         0.404241         0.010966
 C        -1.707643        -0.740380         0.014537
 H        -3.287847        -2.227308         1.912823
 H        -2.704660        -0.186964         3.320163
 H        -1.372923        -1.299751         2.720403
 H        -0.959732         1.723276         2.467524
 H        -3.807151         1.634443         1.391008
 H        -2.191430         1.595006        -1.294597
 H        -1.869733         2.670740         0.202725
 H         0.472135        -0.580701        -0.081042
 H        -2.143227        -0.677899        -1.031969
 H        -1.078092        -1.642184         0.035581
