19
Iteration:  1808charge 0 multiplicity 1
 O        -3.872721        -1.430221         0.842483
 C        -2.643980        -0.677449         1.146903
 C        -1.934591        -0.538663         2.573834
 C        -1.440891         0.809931         2.006376
 C        -2.748605         0.943092         1.176709
 C        -2.110553         1.410703        -0.078749
 C        -0.944250         0.554401         0.388715
 O         0.321115         0.569756        -0.345187
 C        -1.422040        -0.869414         0.262354
 H        -4.500822        -0.698280         0.629295
 H        -2.590981        -0.531635         3.477231
 H        -1.164289        -1.318956         2.745435
 H        -1.023494         1.552669         2.632211
 H        -3.588619         1.377558         1.686497
 H        -2.685344         1.064755        -0.965662
 H        -1.883795         2.445884         0.007454
 H         0.858958         1.390228        -0.207552
 H        -1.780945        -1.069861        -0.760066
 H        -0.627841        -1.527521         0.742566
