19
Iteration:  2381charge 0 multiplicity 1
 O        -3.827307        -1.552302         1.203722
 C        -2.713226        -0.710707         1.113874
 C        -1.896661        -0.502336         2.539575
 C        -1.487948         0.809308         1.810027
 C        -2.825925         0.981169         0.946377
 C        -1.997072         1.554477        -0.139805
 C        -0.914115         0.592409         0.409053
 O         0.413008         0.511439        -0.092985
 C        -1.646176        -0.816194         0.059836
 H        -3.966825        -1.832884         0.301688
 H        -2.569609        -0.321146         3.400820
 H        -1.064434        -1.191123         2.869777
 H        -1.214860         1.687636         2.452765
 H        -3.674712         1.543976         1.401033
 H        -2.357591         1.560628        -1.200935
 H        -1.729878         2.650539         0.025513
 H         1.011350         0.360759         0.687347
 H        -1.917019        -0.602373        -0.996286
 H        -0.868406        -1.590842         0.092910
