19
Iteration:  4326charge 0 multiplicity 1
 O        -3.811949        -1.518034         1.167425
 C        -2.744888        -0.576049         1.072065
 C        -1.900994        -0.548412         2.337590
 C        -1.428230         0.786287         1.747203
 C        -2.834135         1.054305         1.061665
 C        -2.109103         1.516310        -0.133333
 C        -0.922229         0.517324         0.301430
 O         0.539698         0.495798         0.138377
 C        -1.635327        -0.883419         0.073544
 H        -4.463598        -1.106899         0.585795
 H        -2.619214        -0.391436         3.161861
 H        -1.164983        -1.324778         2.453109
 H        -0.992467         1.581869         2.329677
 H        -3.765850         1.599897         1.424507
 H        -2.538200         1.465152        -1.149500
 H        -1.868135         2.604669         0.009518
 H         0.900060         0.658552         1.037212
 H        -2.015020        -0.902596        -0.896289
 H        -0.961855        -1.717072         0.304284
