19
Iteration:  2804charge 0 multiplicity 1
 O        -3.866005        -1.313140         0.892439
 C        -2.702048        -0.650098         1.145532
 C        -1.931526        -0.536753         2.557624
 C        -1.379141         0.803253         2.026582
 C        -2.804036         0.895109         1.179537
 C        -2.056388         1.392548        -0.040522
 C        -0.900768         0.491764         0.388083
 O         0.396522         0.616335        -0.283811
 C        -1.577894        -0.885437         0.142760
 H        -3.739097        -2.206797         0.491550
 H        -2.726027        -0.405858         3.324278
 H        -1.374008        -1.433733         2.932959
 H        -0.974075         1.645417         2.619806
 H        -3.765970         1.348002         1.583461
 H        -2.496472         0.988031        -0.964553
 H        -1.768075         2.464966        -0.021564
 H         0.444498         1.608272        -0.337532
 H        -1.793150        -0.843276        -0.921469
 H        -0.824675        -1.621708         0.425380
