19
Iteration:   809charge 0 multiplicity 1
 O        -4.058652        -1.116316         1.034107
 C        -2.652494        -0.708817         1.180284
 C        -1.987501        -0.638967         2.581291
 C        -1.309731         0.601320         1.875481
 C        -2.647509         0.875380         1.086759
 C        -2.090125         1.253299        -0.235191
 C        -0.901732         0.442416         0.265463
 O         0.247040         1.009019        -0.152857
 C        -1.377751        -0.962115         0.205060
 H        -4.015174        -2.094526         0.902679
 H        -2.784410        -0.270789         3.281061
 H        -1.264822        -1.419007         2.916033
 H        -0.800066         1.393829         2.379079
 H        -3.508235         1.355987         1.637103
 H        -2.567630         0.963571        -1.197167
 H        -1.718939         2.321590        -0.196022
 H         1.021318         0.653842         0.366831
 H        -1.795044        -1.323093        -0.781397
 H        -0.740504        -1.675506         0.745112
