19
Iteration:  4625charge 0 multiplicity 1
 O        -3.866924        -1.412981         1.132445
 C        -2.701450        -0.587913         1.110111
 C        -1.855929        -0.549627         2.446481
 C        -1.479018         0.814811         1.837634
 C        -2.793568         0.946692         1.034345
 C        -1.976163         1.505100        -0.221946
 C        -0.988298         0.543187         0.395436
 O         0.397723         0.543075         0.122084
 C        -1.576402        -0.896726         0.092108
 H        -4.124186        -1.336634         0.218170
 H        -2.486178        -0.623286         3.338590
 H        -0.918587        -1.244217         2.367026
 H        -1.102951         1.655824         2.495636
 H        -3.717765         1.235086         1.448384
 H        -2.493777         1.334162        -1.199219
 H        -1.616781         2.519379        -0.060847
 H         0.706526         0.302689        -0.731359
 H        -1.897710        -0.862657        -0.915079
 H        -1.143391        -1.848733         0.324314
