19
Iteration:  3615
 O        -3.908149        -1.311935         0.972785
 C        -2.773509        -0.619141         1.206927
 C        -1.956495        -0.589655         2.506057
 C        -1.413504         0.771528         1.875688
 C        -2.722822         1.025060         1.128261
 C        -2.030559         1.327173        -0.208142
 C        -0.875025         0.459834         0.299286
 O         0.427970         0.720284        -0.009764
 C        -1.625756        -0.993332         0.203571
 H        -3.590962        -2.096534         0.429634
 H        -2.499750        -0.288339         3.492647
 H        -1.228285        -1.421434         2.747329
 H        -0.895812         1.611265         2.491835
 H        -3.626766         1.531922         1.548110
 H        -2.420406         1.204412        -1.264819
 H        -1.657315         2.452187        -0.288773
 H         0.448617         1.356000        -0.753567
 H        -1.825154        -1.122961        -0.847727
 H        -1.004846        -1.816118         0.575047
