19
Iteration:  4136charge 0 multiplicity 1
 O        -3.894344        -1.500704         1.008919
 C        -2.814508        -0.605902         1.102179
 C        -2.000806        -0.570347         2.473577
 C        -1.305858         0.726161         1.881283
 C        -2.761058         0.994262         1.197251
 C        -1.974860         1.534856        -0.108002
 C        -0.887855         0.496834         0.320128
 O         0.404817         0.702430        -0.013168
 C        -1.627001        -0.814213         0.063336
 H        -3.790762        -1.997073         0.168955
 H        -2.520262        -0.521715         3.449769
 H        -1.376278        -1.511568         2.615848
 H        -0.730009         1.510711         2.484351
 H        -3.557962         1.546631         1.706231
 H        -2.485651         1.516557        -1.105371
 H        -1.537556         2.549449         0.170771
 H         0.793707        -0.092729        -0.447985
 H        -2.013110        -1.080582        -0.930159
 H        -1.240974        -1.759802         0.473650
