19
Iteration:  2446
 O        -3.899604        -1.407733         1.119724
 C        -2.722684        -0.668211         1.137182
 C        -1.832444        -0.574540         2.407630
 C        -1.411583         0.838079         1.828204
 C        -2.817299         0.896988         1.106423
 C        -2.053506         1.396797        -0.156609
 C        -0.948225         0.565232         0.375086
 O         0.422815         0.545652        -0.000647
 C        -1.566239        -0.817066         0.122284
 H        -4.347325        -1.379172         0.271449
 H        -2.557912        -0.479943         3.224190
 H        -1.108672        -1.371625         2.663385
 H        -1.128417         1.776419         2.343646
 H        -3.722382         1.432279         1.532757
 H        -2.477644         1.277921        -1.181958
 H        -1.739682         2.489047        -0.200295
 H         0.897294         1.366919        -0.100106
 H        -1.888526        -0.850169        -0.931949
 H        -0.825684        -1.606940         0.312777
