19
Iteration:  2906charge 0 multiplicity 1
 O        -3.812164        -1.624130         1.174343
 C        -2.669558        -0.597710         1.130090
 C        -1.833651        -0.458587         2.361813
 C        -1.468276         0.883926         1.791423
 C        -2.858885         0.955343         1.007835
 C        -2.092597         1.565317        -0.093937
 C        -0.935398         0.562506         0.358672
 O         0.402542         0.404580         0.037314
 C        -1.590406        -0.792600         0.039777
 H        -4.489504        -1.306267         0.536744
 H        -2.423859        -0.460070         3.267325
 H        -1.004057        -1.175085         2.330134
 H        -1.061380         1.823663         2.235741
 H        -3.775773         1.391303         1.466362
 H        -2.536558         1.710280        -1.041794
 H        -1.651191         2.521966         0.110653
 H         0.882487         0.561421         0.873858
 H        -1.822167        -0.881589        -1.007010
 H        -0.929746        -1.587292         0.367831
