19
Iteration:  4693charge 0 multiplicity 1
 O        -3.828014        -1.407371         1.112735
 C        -2.741354        -0.551504         1.126030
 C        -1.977084        -0.517363         2.465259
 C        -1.513989         0.793887         1.934494
 C        -2.784718         0.949767         1.078879
 C        -1.962415         1.462353        -0.131360
 C        -0.922654         0.442252         0.302237
 O         0.435769         0.615673         0.011891
 C        -1.573025        -0.906812         0.071869
 H        -4.138869        -1.625808         0.221006
 H        -2.681189        -0.451370         3.345422
 H        -1.119648        -1.288999         2.562133
 H        -1.024358         1.638703         2.452137
 H        -3.794510         1.399336         1.365430
 H        -2.426008         1.317746        -1.140997
 H        -1.326499         2.361311         0.112519
 H         0.517756         0.549099        -0.956970
 H        -1.775630        -1.112245        -0.985533
 H        -1.003215        -1.670925         0.546452
