19
Iteration:  1240
 O        -3.874243        -1.504218         1.252541
 C        -2.717439        -0.640091         1.072389
 C        -1.856767        -0.685810         2.315840
 C        -1.444045         0.649588         1.779842
 C        -2.772107         1.016821         1.049810
 C        -1.972954         1.574624        -0.110635
 C        -0.959115         0.520062         0.311257
 O         0.411175         0.762816         0.086686
 C        -1.712559        -0.817941        -0.084702
 H        -3.691715        -1.746513         2.138644
 H        -2.269884        -0.561539         3.362980
 H        -1.013628        -1.419310         2.290567
 H        -0.830572         1.435833         2.335206
 H        -3.629681         1.533309         1.505206
 H        -2.557521         1.434479        -1.041565
 H        -1.662966         2.636206        -0.012344
 H         0.892621         0.103471         0.652298
 H        -2.294755        -0.706214        -1.029129
 H        -1.069562        -1.731947         0.033486
