19
Iteration:  2511
 O        -3.822594        -1.556772         1.055467
 C        -2.774846        -0.571786         1.144018
 C        -2.115850        -0.542098         2.585321
 C        -1.261850         0.640575         1.994433
 C        -2.781776         1.033761         1.104340
 C        -2.042858         1.483555        -0.163097
 C        -0.905501         0.534372         0.385122
 O         0.444057         0.678953        -0.266381
 C        -1.541419        -0.885288         0.193638
 H        -4.116403        -1.671751         0.084257
 H        -2.697515        -0.112976         3.388487
 H        -1.749219        -1.540528         2.817581
 H        -0.591074         1.419917         2.459529
 H        -3.651461         1.628764         1.578016
 H        -2.610475         1.214850        -1.097514
 H        -1.577467         2.493324        -0.371422
 H         0.495201         1.660494        -0.343546
 H        -1.943595        -0.976227        -0.808028
 H        -1.157119        -1.876358         0.417259
