19
Iteration:  1771
 O        -3.908757        -1.434977         1.283439
 C        -2.722698        -0.677677         1.100933
 C        -1.906553        -0.529224         2.371969
 C        -1.365913         0.696179         1.781742
 C        -2.712348         0.968481         1.087705
 C        -2.066137         1.441899        -0.157110
 C        -0.914775         0.455086         0.274477
 O         0.436881         0.770353         0.075334
 C        -1.644351        -0.946956         0.017088
 H        -4.275408        -1.845107         0.508864
 H        -2.582890        -0.455779         3.210641
 H        -1.166831        -1.324421         2.497317
 H        -0.845782         1.586352         2.276049
 H        -3.644024         1.463740         1.480526
 H        -2.481987         1.413363        -1.143272
 H        -1.593809         2.456457        -0.076051
 H         0.437177         1.726231         0.347977
 H        -2.012732        -0.978659        -0.998924
 H        -1.039490        -1.787110         0.117940
