19
Iteration:  2015charge 0 multiplicity 1
 O        -3.931443        -1.221259         0.924552
 C        -2.661884        -0.713798         1.160832
 C        -1.984786        -0.491810         2.658941
 C        -1.421421         0.824119         1.843442
 C        -2.780672         0.873217         1.121034
 C        -2.090887         1.324003        -0.225472
 C        -0.928270         0.502734         0.356159
 O         0.301294         0.723126        -0.223103
 C        -1.362108        -0.934361         0.299954
 H        -3.788745        -2.085153         0.396232
 H        -2.694472        -0.147973         3.440010
 H        -1.200210        -1.165836         3.051719
 H        -0.963180         1.654812         2.400634
 H        -3.674760         1.277860         1.689962
 H        -2.443640         0.804205        -1.155103
 H        -1.762981         2.359931        -0.229801
 H         0.867731        -0.013320         0.053285
 H        -1.610242        -1.278927        -0.682890
 H        -0.647305        -1.511108         0.895849
