19
Iteration:   881charge 0 multiplicity 1
 O        -3.643167        -1.708561         1.298477
 C        -2.738802        -0.714563         1.119322
 C        -1.984275        -0.493374         2.386469
 C        -1.489655         0.850086         1.821530
 C        -2.799826         1.048852         0.990578
 C        -1.992394         1.698847        -0.093642
 C        -0.983701         0.587557         0.296188
 O         0.456618         0.472276        -0.031864
 C        -1.693568        -0.752989         0.043615
 H        -4.386116        -1.784621         0.614485
 H        -2.789029        -0.377408         3.105249
 H        -1.247072        -1.256261         2.557729
 H        -0.876977         1.673245         2.439621
 H        -3.634339         1.506010         1.430367
 H        -2.418033         1.900217        -1.096083
 H        -1.709595         2.562282         0.420563
 H         0.626478        -0.502639         0.007571
 H        -2.152002        -0.545815        -0.890779
 H        -0.984165        -1.576771         0.055469
