19
Iteration:   519
 O        -3.952574        -1.339203         1.145557
 C        -2.682394        -0.691641         1.119277
 C        -1.721863        -0.600297         2.347512
 C        -1.373509         0.769494         1.842750
 C        -2.844063         0.858150         1.090391
 C        -2.198069         1.522030        -0.102114
 C        -0.920398         0.538870         0.290885
 O         0.460208         0.715552         0.098167
 C        -1.621684        -0.897104        -0.030300
 H        -3.938611        -2.239424         1.574651
 H        -2.279425        -0.509923         3.249557
 H        -0.935582        -1.339541         2.521374
 H        -0.958605         1.573113         2.392141
 H        -3.697506         1.298097         1.653133
 H        -2.731535         1.420466        -1.033115
 H        -1.975506         2.610427         0.137421
 H         0.964511         0.243705        -0.613389
 H        -2.059761        -0.853889        -0.980473
 H        -0.920511        -1.691246         0.173660
