19
Iteration:  4363charge 0 multiplicity 1
 O        -3.850423        -1.439533         1.203918
 C        -2.648636        -0.687162         1.147241
 C        -1.932354        -0.595863         2.445671
 C        -1.555462         0.740371         1.847156
 C        -2.798718         1.036720         0.914059
 C        -1.875643         1.529784        -0.176154
 C        -0.924498         0.526355         0.410403
 O         0.383723         0.623717        -0.001254
 C        -1.618396        -0.886535         0.061606
 H        -4.399093        -1.427515         0.368352
 H        -2.662255        -0.472128         3.236668
 H        -1.256456        -1.396662         2.825307
 H        -0.930016         1.494887         2.346724
 H        -3.680896         1.566484         1.157600
 H        -2.238174         1.396879        -1.237798
 H        -1.625314         2.502545         0.184150
 H         1.024438         0.577351         0.782607
 H        -2.308844        -0.858533        -0.906626
 H        -0.961893        -1.777434        -0.121527
