19
Iteration:  2865
 O        -3.848557        -1.495443         1.115152
 C        -2.766659        -0.655290         1.146859
 C        -1.976000        -0.509501         2.475472
 C        -1.334154         0.746560         1.849972
 C        -2.713963         1.012648         1.128621
 C        -2.076690         1.456954        -0.192822
 C        -0.937533         0.430343         0.324579
 O         0.422791         0.659125        -0.006358
 C        -1.621182        -0.850548         0.074892
 H        -3.933219        -1.817963         0.158113
 H        -2.605159        -0.226644         3.343355
 H        -1.363571        -1.381669         2.692825
 H        -0.811481         1.460777         2.437835
 H        -3.437823         1.548136         1.651018
 H        -2.617772         1.176357        -1.123674
 H        -1.694360         2.486170        -0.198736
 H         0.622912         1.631625         0.047330
 H        -2.055186        -0.797261        -0.962491
 H        -0.928999        -1.760900         0.202013
