19
Iteration:  1772
 O        -3.909983        -1.429770         1.277809
 C        -2.716322        -0.679140         1.102321
 C        -1.908616        -0.527767         2.383250
 C        -1.364024         0.692910         1.779263
 C        -2.713396         0.962930         1.078928
 C        -2.065683         1.433356        -0.151128
 C        -0.923714         0.460256         0.278851
 O         0.438906         0.771653         0.063891
 C        -1.638684        -0.941027         0.025369
 H        -4.291489        -1.809182         0.463712
 H        -2.597868        -0.457573         3.220765
 H        -1.182209        -1.329937         2.488020
 H        -0.869768         1.564698         2.285697
 H        -3.601582         1.457106         1.488523
 H        -2.490089         1.423264        -1.128120
 H        -1.627223         2.440919        -0.047059
 H         0.463796         1.730218         0.339819
 H        -2.021372        -1.013999        -0.978495
 H        -1.028488        -1.779023         0.120299
