19
Iteration:   623
 O        -3.912452        -1.319135         0.892645
 C        -2.670709        -0.626328         1.195447
 C        -1.856203        -0.594390         2.538091
 C        -1.350261         0.700059         1.867207
 C        -2.747538         0.959644         1.221437
 C        -2.167571         1.274470        -0.101843
 C        -0.885660         0.464093         0.329543
 O         0.352960         0.903849        -0.158638
 C        -1.511262        -1.006629         0.223841
 H        -4.553199        -0.639928         0.771898
 H        -2.467033        -0.391976         3.486341
 H        -1.162709        -1.447167         2.694991
 H        -0.990405         1.598843         2.464351
 H        -3.609288         1.340857         1.839318
 H        -2.730327         0.964011        -1.069538
 H        -1.777309         2.289992        -0.241557
 H         0.333274         0.715992        -1.125564
 H        -1.641560        -1.445025        -0.847012
 H        -0.927247        -1.865806         0.668820
