19
Iteration:   994charge 0 multiplicity 1
 O        -3.819727        -1.508216         0.998283
 C        -2.739127        -0.585768         1.184790
 C        -2.037854        -0.533845         2.587605
 C        -1.401239         0.707668         1.939943
 C        -2.711262         1.066389         1.197950
 C        -1.986817         1.396182        -0.026488
 C        -0.925007         0.413484         0.324140
 O         0.295966         0.743314        -0.406068
 C        -1.512002        -0.906833         0.193376
 H        -4.015100        -1.389981         0.065408
 H        -2.652296        -0.179746         3.424905
 H        -1.365512        -1.383594         2.717127
 H        -0.852772         1.422093         2.484770
 H        -3.656909         1.440210         1.724762
 H        -2.495729         1.101620        -0.923006
 H        -1.457274         2.341018        -0.085201
 H         0.666814         1.492824         0.144756
 H        -1.884432        -1.116277        -0.830486
 H        -0.900944        -1.662668         0.649339
