19
Iteration:  1355
 O        -3.870418        -1.417848         1.091354
 C        -2.715924        -0.632532         1.180482
 C        -1.809309        -0.557631         2.418217
 C        -1.426979         0.755926         1.792879
 C        -2.777213         0.937914         1.098756
 C        -2.111327         1.404685        -0.215111
 C        -0.933283         0.530209         0.310982
 O         0.436788         0.730995         0.130265
 C        -1.591411        -0.975762         0.040634
 H        -4.531619        -1.085931         1.671445
 H        -2.197756        -0.357491         3.369820
 H        -1.030905        -1.288174         2.457400
 H        -1.010106         1.610385         2.206648
 H        -3.578390         1.384157         1.664034
 H        -2.527217         1.132461        -1.144078
 H        -2.030062         2.478227        -0.187245
 H         0.452720         0.924676        -0.846145
 H        -2.005120        -1.061292        -0.930406
 H        -0.965079        -1.784733         0.348862
