19
Iteration:  4965charge 0 multiplicity 1
 O        -3.881168        -1.483725         1.072197
 C        -2.684561        -0.609360         1.046227
 C        -1.896080        -0.574049         2.399433
 C        -1.508110         0.772804         1.898461
 C        -2.849441         1.014392         1.035561
 C        -1.900695         1.550351        -0.089920
 C        -0.865893         0.451185         0.340349
 O         0.369196         0.535331         0.018937
 C        -1.591295        -0.841686         0.046658
 H        -4.120921        -1.367397         2.028103
 H        -2.468677        -0.648763         3.307386
 H        -1.175131        -1.361107         2.359417
 H        -1.008710         1.603848         2.332705
 H        -3.849040         1.382116         1.485578
 H        -2.464365         1.590585        -1.023382
 H        -1.541968         2.495375         0.329326
 H         0.624512         1.526215         0.027181
 H        -1.909831        -0.912573        -1.039620
 H        -1.092510        -1.789171         0.279886
