19
Iteration:  4229charge 0 multiplicity 1
 O        -3.859112        -1.344248         0.839716
 C        -2.724931        -0.638479         1.083551
 C        -2.008079        -0.526684         2.539841
 C        -1.354423         0.664344         1.865495
 C        -2.723677         0.919376         1.145400
 C        -2.122935         1.506096        -0.039665
 C        -0.857103         0.454444         0.388177
 O         0.437354         0.658118         0.003254
 C        -1.610704        -0.865819         0.110158
 H        -3.949506        -1.954158         1.589833
 H        -2.743880        -0.244961         3.339728
 H        -1.233594        -1.239792         2.864750
 H        -0.962939         1.527911         2.325926
 H        -3.510503         1.613050         1.564572
 H        -2.472953         1.251993        -1.094227
 H        -1.741197         2.551315        -0.052143
 H         0.505295         0.458610        -0.969843
 H        -1.980217        -0.831015        -1.002419
 H        -1.088699        -1.793548         0.500283
