19
Iteration:  4337charge 0 multiplicity 1
 O        -3.902642        -1.544349         1.194302
 C        -2.777572        -0.642859         1.081618
 C        -1.860135        -0.489144         2.327521
 C        -1.523927         0.857704         1.805988
 C        -2.796916         0.899406         1.039090
 C        -1.949333         1.519411        -0.178881
 C        -0.892182         0.554081         0.334278
 O         0.530453         0.509079         0.107313
 C        -1.666439        -0.766980         0.010949
 H        -4.776561        -1.441423         0.690321
 H        -2.418993        -0.456803         3.292250
 H        -1.114704        -1.238997         2.538613
 H        -0.930804         1.609291         2.275305
 H        -3.666541         1.456806         1.539647
 H        -2.425056         1.478612        -1.168098
 H        -1.744146         2.553709         0.231114
 H         0.952208         0.616514         1.031324
 H        -2.014001        -1.038127        -0.920046
 H        -1.056007        -1.643115         0.288092
