19
Iteration:  1424
 O        -3.649564        -1.707670         1.100688
 C        -2.682456        -0.694346         1.194223
 C        -2.004764        -0.375239         2.470754
 C        -1.504731         0.904536         1.842479
 C        -2.810453         1.029290         1.039207
 C        -2.020094         1.610838        -0.120525
 C        -0.916356         0.527081         0.330630
 O         0.396182         0.486144        -0.102137
 C        -1.679429        -0.798952         0.054566
 H        -4.012370        -1.806215         1.978723
 H        -2.786122        -0.092867         3.212356
 H        -1.337817        -1.193036         2.770737
 H        -0.998570         1.709069         2.500619
 H        -3.715299         1.599316         1.430424
 H        -2.202747         1.483178        -1.215994
 H        -1.703840         2.695256         0.028070
 H         0.562342        -0.468644         0.049624
 H        -2.217742        -0.733645        -0.926857
 H        -0.859713        -1.575729         0.125005
