19
Iteration:  3282
 O        -3.844687        -1.436792         1.030490
 C        -2.680505        -0.608491         1.071498
 C        -1.999838        -0.532230         2.471805
 C        -1.438300         0.812639         1.860034
 C        -2.844786         0.937816         1.094166
 C        -2.082644         1.569766        -0.022109
 C        -0.870477         0.538044         0.406534
 O         0.376378         0.545334        -0.160868
 C        -1.431987        -0.895030         0.205553
 H        -4.081009        -1.767153         0.177501
 H        -2.674611        -0.257339         3.287928
 H        -1.188672        -1.181932         2.854227
 H        -1.156883         1.705363         2.440724
 H        -3.795295         1.355698         1.646511
 H        -2.600469         1.434839        -1.036428
 H        -1.661384         2.561169         0.172783
 H         0.490470        -0.275539        -0.604373
 H        -1.654811        -1.035022        -0.827425
 H        -0.751898        -1.626318         0.597207
