19
Iteration:  4964charge 0 multiplicity 1
 O        -3.875448        -1.478019         1.070427
 C        -2.683018        -0.603681         1.036117
 C        -1.903230        -0.568645         2.404429
 C        -1.500385         0.755645         1.897288
 C        -2.853049         1.016345         1.035786
 C        -1.903920         1.548262        -0.084672
 C        -0.878493         0.453866         0.337087
 O         0.373275         0.537226         0.016431
 C        -1.591192        -0.842274         0.051356
 H        -4.084247        -1.380607         2.049751
 H        -2.463536        -0.646969         3.306400
 H        -1.170117        -1.366293         2.376031
 H        -0.984066         1.621335         2.316810
 H        -3.853593         1.389914         1.465915
 H        -2.506430         1.565635        -1.047698
 H        -1.539465         2.496142         0.343935
 H         0.642761         1.521217         0.083485
 H        -1.901069        -0.946258        -1.033675
 H        -1.097337        -1.806555         0.286092
