19
Iteration:  2423
 O        -3.759423        -1.607148         1.274523
 C        -2.787796        -0.629801         1.078293
 C        -1.979953        -0.522265         2.391877
 C        -1.430125         0.681856         1.800819
 C        -2.701573         1.133245         1.049059
 C        -2.020560         1.592123        -0.217087
 C        -0.950797         0.469726         0.327953
 O         0.454321         0.613531         0.110308
 C        -1.669470        -0.900781        -0.011953
 H        -4.405824        -1.838490         0.521849
 H        -2.566491        -0.310632         3.290819
 H        -1.269265        -1.305689         2.604169
 H        -0.765871         1.282951         2.371958
 H        -3.433719         1.818823         1.467227
 H        -2.535118         1.503670        -1.188319
 H        -1.807540         2.695817        -0.216351
 H         0.818026         1.501248         0.355517
 H        -2.147533        -0.950219        -0.967507
 H        -1.267117        -1.881026         0.257334
