19
Iteration:   951
 O        -3.994538        -1.239915         0.968688
 C        -2.697552        -0.744088         1.135770
 C        -1.758814        -0.537087         2.526359
 C        -1.406112         0.783987         1.835874
 C        -2.812302         0.895267         1.266037
 C        -2.189580         1.303447        -0.102235
 C        -0.931093         0.483256         0.356148
 O         0.415558         0.696097        -0.097086
 C        -1.450097        -0.928804         0.145150
 H        -4.245248        -1.199016         0.010649
 H        -2.424501        -0.221391         3.355473
 H        -0.933958        -1.240410         2.771193
 H        -0.859263         1.545087         2.256486
 H        -3.687776         1.431564         1.798915
 H        -2.684521         1.006221        -0.997894
 H        -1.940499         2.387352        -0.101045
 H         0.512456         1.122767        -0.989014
 H        -1.583214        -1.137621        -0.956040
 H        -0.698522        -1.548108         0.627372
