19
Iteration:  3430
 O        -3.759886        -1.617619         1.019812
 C        -2.756196        -0.658720         1.145459
 C        -2.076712        -0.395478         2.517739
 C        -1.331314         0.784203         1.854854
 C        -2.705376         1.045704         1.124447
 C        -1.992476         1.561851        -0.126558
 C        -0.935496         0.441678         0.392564
 O         0.331817         0.600719        -0.138197
 C        -1.650606        -0.800930         0.121660
 H        -3.925988        -1.937884         0.089644
 H        -2.916543        -0.147980         3.277619
 H        -1.402209        -1.093925         3.138428
 H        -0.749831         1.562178         2.470114
 H        -3.691835         1.439110         1.479883
 H        -2.442360         1.537372        -1.096922
 H        -1.560308         2.589679         0.006086
 H         0.949195        -0.088507         0.151599
 H        -1.821974        -1.196797        -0.942432
 H        -0.964168        -1.614729         0.627254
