19
Iteration:  1923charge 0 multiplicity 1
 O        -3.833159        -1.507143         1.233796
 C        -2.675745        -0.665287         1.103473
 C        -1.731770        -0.481224         2.365075
 C        -1.443683         0.859295         1.736292
 C        -2.843488         0.975395         1.054075
 C        -2.153794         1.453875        -0.196736
 C        -0.962460         0.529353         0.233231
 O         0.484711         0.564614         0.210451
 C        -1.683696        -0.912832        -0.026990
 H        -4.525317        -0.910174         0.919455
 H        -2.223450        -0.512922         3.329273
 H        -0.809115        -1.075736         2.316812
 H        -1.066500         1.779489         2.249095
 H        -3.765079         1.451311         1.423170
 H        -2.598475         1.288890        -1.167652
 H        -1.945261         2.533355         0.084987
 H         0.724538         0.421469         1.161055
 H        -1.982320        -0.733288        -1.073324
 H        -1.045271        -1.756036         0.104564
