19
Iteration:  1608charge 0 multiplicity 1
 O        -3.866295        -1.500398         1.116292
 C        -2.729185        -0.663287         1.181642
 C        -1.800143        -0.437547         2.433847
 C        -1.450264         0.874027         1.758522
 C        -2.832721         0.999248         1.095948
 C        -2.084484         1.454187        -0.307819
 C        -0.953931         0.537565         0.302606
 O         0.432756         0.611149         0.181210
 C        -1.630631        -0.922578         0.066607
 H        -3.583460        -2.375656         1.501702
 H        -2.256993        -0.233484         3.417607
 H        -0.975799        -1.191072         2.457614
 H        -0.794856         1.683118         2.295602
 H        -3.729293         1.649144         1.452492
 H        -2.547685         1.217950        -1.266214
 H        -2.050235         2.554047        -0.140309
 H         0.878598         0.160337        -0.528941
 H        -1.983403        -1.045450        -0.983053
 H        -1.000653        -1.767838         0.337139
