19
Iteration:  3138charge 0 multiplicity 1
 O        -3.806761        -1.495887         0.947036
 C        -2.825293        -0.628447         1.201646
 C        -2.065243        -0.525189         2.447354
 C        -1.330763         0.745729         1.836580
 C        -2.700180         0.995669         1.162780
 C        -2.009095         1.469358        -0.138001
 C        -0.917755         0.444045         0.258248
 O         0.437959         0.708600        -0.080323
 C        -1.575020        -0.920849         0.195217
 H        -4.335075        -1.674979         1.794527
 H        -2.599209         0.041714         3.248582
 H        -1.579552        -1.426955         2.837568
 H        -0.767053         1.314240         2.596606
 H        -3.573934         1.493662         1.647986
 H        -2.669105         1.267596        -0.999163
 H        -1.857636         2.548702        -0.032477
 H         0.406939         1.512213        -0.674508
 H        -1.794253        -1.172959        -0.817793
 H        -0.993738        -1.756937         0.626987
