19
Iteration:  1403
 O        -3.618086        -1.712832         1.196614
 C        -2.663229        -0.662237         1.122071
 C        -1.867333        -0.379420         2.501172
 C        -1.514830         0.847513         1.783210
 C        -2.902107         0.984457         0.972498
 C        -1.988889         1.711189        -0.189071
 C        -0.974302         0.518527         0.300360
 O         0.420936         0.401172         0.150148
 C        -1.804792        -0.739704        -0.089192
 H        -3.486698        -1.920020         2.174108
 H        -2.706079        -0.313902         3.269493
 H        -1.046245        -1.075255         2.818341
 H        -1.117085         1.853620         2.184436
 H        -3.740157         1.584723         1.431421
 H        -2.304020         1.825680        -1.297343
 H        -1.649511         2.751993         0.161865
 H         0.470275        -0.438644        -0.306717
 H        -2.265617        -0.459027        -1.070605
 H        -1.161093        -1.680695        -0.050591
