19
Iteration:  3780charge 0 multiplicity 1
 O        -3.925268        -1.324696         0.861125
 C        -2.747191        -0.646500         1.204187
 C        -1.921562        -0.585393         2.530176
 C        -1.352873         0.659750         1.892279
 C        -2.627386         0.996026         1.160452
 C        -2.069847         1.323145        -0.259543
 C        -0.945180         0.447481         0.279749
 O         0.345730         0.880883        -0.023990
 C        -1.581060        -0.991768         0.236951
 H        -4.664192        -0.761687         1.237762
 H        -2.497850        -0.316092         3.424546
 H        -1.405019        -1.534882         2.628160
 H        -0.777061         1.463176         2.220499
 H        -3.425800         1.446925         1.775605
 H        -2.551284         1.035128        -1.177535
 H        -1.744603         2.365820        -0.490740
 H         1.242166         0.518751         0.208448
 H        -1.810829        -1.302850        -0.731392
 H        -0.907120        -1.720893         0.644104
