19
Iteration:   392
 O        -3.817722        -1.533199         1.377278
 C        -2.699130        -0.654403         1.074623
 C        -1.764097        -0.657317         2.324578
 C        -1.356265         0.668756         1.721779
 C        -2.782026         0.965795         1.031511
 C        -2.094993         1.708284        -0.176876
 C        -1.004403         0.526018         0.280669
 O         0.470499         0.649278         0.218516
 C        -1.786393        -0.846257        -0.084638
 H        -4.482865        -1.543776         0.736016
 H        -2.386939        -0.654993         3.255271
 H        -0.964431        -1.454592         2.359405
 H        -0.834325         1.398425         2.323747
 H        -3.607334         1.316942         1.503320
 H        -2.610097         1.494875        -1.163280
 H        -1.809779         2.686913        -0.183998
 H         0.768861         1.491301         0.610032
 H        -2.084059        -0.782454        -1.166864
 H        -1.332068        -1.828223        -0.178607
