19
Iteration:  1389charge 0 multiplicity 1
 O        -3.665041        -1.668553         1.235378
 C        -2.742346        -0.654013         1.128816
 C        -1.819002        -0.465681         2.342607
 C        -1.505574         0.904211         1.701634
 C        -2.816442         1.045108         1.006261
 C        -2.036589         1.626429        -0.213556
 C        -0.993580         0.585933         0.338409
 O         0.404754         0.430499         0.269174
 C        -1.748397        -0.785296        -0.079733
 H        -3.858812        -2.027283         2.086863
 H        -2.260274        -0.304787         3.303661
 H        -1.034104        -1.187810         2.455582
 H        -1.014284         1.658491         2.295879
 H        -3.603187         1.522564         1.604110
 H        -2.263309         1.444399        -1.232557
 H        -1.849227         2.690730         0.050762
 H         0.753326         0.011345        -0.547484
 H        -2.384241        -0.876114        -0.951959
 H        -1.128056        -1.689806        -0.150592
