19
Iteration:  4827
 O        -3.771687        -1.513493         1.109904
 C        -2.694554        -0.624949         1.127224
 C        -1.872916        -0.505539         2.438847
 C        -1.453731         0.783239         1.749258
 C        -2.778337         1.100159         1.031558
 C        -1.974190         1.466480        -0.194049
 C        -1.039783         0.444697         0.363248
 O         0.347336         0.540382         0.191550
 C        -1.627989        -0.829219         0.072821
 H        -4.417624        -1.208463         0.492733
 H        -2.585610        -0.221614         3.272951
 H        -1.121322        -1.283459         2.558046
 H        -0.846607         1.449770         2.312632
 H        -3.648419         1.368709         1.694719
 H        -2.434229         1.358609        -1.190917
 H        -1.410288         2.472322        -0.086312
 H         0.710252         0.562209        -0.674143
 H        -2.031163        -0.845733        -0.906298
 H        -0.879586        -1.589694         0.321666
