19
Iteration:  4151charge 0 multiplicity 1
 O        -3.963722        -1.498188         1.149782
 C        -2.727317        -0.677076         1.124516
 C        -1.915697        -0.623225         2.426849
 C        -1.440331         0.687045         1.832588
 C        -2.739326         0.943984         1.050438
 C        -1.973829         1.608250        -0.096682
 C        -0.920147         0.571139         0.380294
 O         0.494187         0.664513         0.034147
 C        -1.636814        -0.790271         0.021740
 H        -4.267969        -1.669650         0.199131
 H        -2.596841        -0.268478         3.251500
 H        -1.298053        -1.425225         2.790146
 H        -1.057051         1.509941         2.438376
 H        -3.577630         1.440289         1.592020
 H        -2.291139         1.440024        -1.116437
 H        -1.791792         2.635306         0.235299
 H         0.683406        -0.199746        -0.445226
 H        -1.929483        -0.661621        -1.015975
 H        -0.869886        -1.580874        -0.065596
