19
Iteration:   160charge 0 multiplicity 1
 O        -3.867070        -1.416146         1.030702
 C        -2.718299        -0.666651         1.191869
 C        -1.946857        -0.478992         2.580215
 C        -1.439193         0.742479         1.911261
 C        -2.763014         0.918085         1.129880
 C        -2.079315         1.402583        -0.119041
 C        -0.925205         0.516576         0.324762
 O         0.361434         0.670911        -0.274276
 C        -1.487647        -0.893766         0.196922
 H        -3.954888        -1.610356         0.090487
 H        -2.575783        -0.085657         3.428887
 H        -1.330168        -1.323810         3.024497
 H        -0.761195         1.527043         2.343864
 H        -3.622377         1.404426         1.566834
 H        -2.452804         1.194273        -1.206320
 H        -1.850713         2.477484        -0.128032
 H         0.857173         1.384465         0.139949
 H        -1.755571        -1.227376        -0.852661
 H        -0.904758        -1.785060         0.568074
