19
Iteration:   864charge 0 multiplicity 1
 O        -3.679475        -1.625842         1.142280
 C        -2.712921        -0.608392         1.151414
 C        -1.869574        -0.524885         2.526164
 C        -1.503195         0.818500         1.856104
 C        -2.874903         1.002008         1.089151
 C        -1.925692         1.612181        -0.150894
 C        -0.952200         0.561878         0.368197
 O         0.316207         0.509965        -0.095875
 C        -1.678743        -0.760820         0.023319
 H        -4.057516        -1.535372         0.194738
 H        -2.421335        -0.259993         3.484336
 H        -1.062964        -1.300857         2.745225
 H        -1.159060         1.651163         2.364072
 H        -3.809867         1.449589         1.603807
 H        -2.170900         1.420636        -1.210528
 H        -1.670529         2.738248        -0.052752
 H         0.686751        -0.369209         0.145505
 H        -2.039824        -1.009970        -1.047665
 H        -1.026547        -1.620340         0.345303
