19
Iteration:  4674charge 0 multiplicity 1
 O        -3.926892        -1.533633         1.222842
 C        -2.768750        -0.712495         1.132157
 C        -1.972891        -0.564566         2.393636
 C        -1.383479         0.740936         1.760178
 C        -2.758512         1.072737         1.003971
 C        -1.973303         1.589818        -0.229734
 C        -0.888744         0.488317         0.382849
 O         0.486314         0.664628         0.116969
 C        -1.608073        -0.875465         0.111378
 H        -4.425361        -1.718673         0.385996
 H        -2.592623        -0.159285         3.233201
 H        -1.541054        -1.495556         2.655137
 H        -0.898269         1.483811         2.343211
 H        -3.541118         1.628763         1.614522
 H        -2.328245         1.416459        -1.274098
 H        -1.833017         2.717034         0.025263
 H         0.730229         0.456079        -0.831406
 H        -2.126319        -1.058667        -0.874257
 H        -0.896841        -1.720821         0.319415
