19
Iteration:  4321charge 0 multiplicity 1
 O        -3.772572        -1.476572         1.141469
 C        -2.721834        -0.616029         1.104470
 C        -1.938460        -0.555665         2.375366
 C        -1.375910         0.760950         1.772538
 C        -2.848352         1.079204         1.059209
 C        -2.153521         1.575801        -0.177754
 C        -0.941521         0.469432         0.309404
 O         0.496110         0.503718         0.136924
 C        -1.614057        -0.890644         0.056887
 H        -4.438548        -1.097816         0.489273
 H        -2.539518        -0.384793         3.278936
 H        -1.232417        -1.423198         2.506787
 H        -0.977617         1.633356         2.384712
 H        -3.678490         1.559166         1.513300
 H        -2.509202         1.249714        -1.177886
 H        -1.732434         2.585962        -0.093994
 H         0.867592         0.735952         1.025825
 H        -1.893092        -0.872681        -1.083096
 H        -1.065257        -1.786223         0.375289
