19
Iteration:  1637charge 0 multiplicity 1
 O        -3.970256        -1.120308         1.128918
 C        -2.637714        -0.742318         1.140359
 C        -1.872553        -0.516885         2.501025
 C        -1.441162         0.739778         1.788409
 C        -2.774813         0.776149         1.054860
 C        -2.070186         1.293623        -0.234987
 C        -0.903620         0.481678         0.371083
 O         0.392020         0.860239         0.009966
 C        -1.499082        -1.043026         0.141381
 H        -4.094767        -2.052389         1.077334
 H        -2.540152        -0.221704         3.306340
 H        -1.181390        -1.252341         2.921525
 H        -0.954259         1.584382         2.281492
 H        -3.714893         1.236297         1.380356
 H        -2.481856         1.054227        -1.221475
 H        -2.137621         2.384759        -0.189034
 H         0.489640         1.190372        -0.910211
 H        -1.644362        -1.298692        -0.888935
 H        -0.850364        -1.801182         0.554049
