19
Iteration:  3339charge 0 multiplicity 1
 O        -3.897644        -1.465739         1.091224
 C        -2.746166        -0.632913         1.133295
 C        -2.003911        -0.549791         2.399714
 C        -1.323149         0.776167         1.850918
 C        -2.767775         0.945323         1.099452
 C        -1.997844         1.392325        -0.133577
 C        -0.872726         0.482582         0.340494
 O         0.391772         0.833691        -0.054358
 C        -1.633677        -0.997683         0.123218
 H        -4.478809        -1.055428         0.386579
 H        -2.631785        -0.234824         3.224565
 H        -1.245523        -1.311521         2.722779
 H        -0.895197         1.537923         2.456713
 H        -3.533733         1.508483         1.560653
 H        -2.373580         1.390871        -1.167114
 H        -1.549766         2.368093         0.013235
 H         1.113541         0.451968         0.539995
 H        -1.954155        -1.246678        -0.900887
 H        -0.968503        -1.768884         0.482046
