19
Iteration:  4369
 O        -3.809258        -1.394041         1.180624
 C        -2.674394        -0.715311         1.120879
 C        -1.991864        -0.594722         2.445891
 C        -1.536375         0.779501         1.888180
 C        -2.757030         1.009149         0.951597
 C        -1.922095         1.487755        -0.152819
 C        -0.925124         0.466160         0.349735
 O         0.402904         0.655967        -0.013748
 C        -1.640111        -0.868539         0.056326
 H        -4.267055        -1.532685         0.373177
 H        -2.776290        -0.344061         3.197811
 H        -1.256497        -1.361204         2.689997
 H        -0.854141         1.450895         2.431447
 H        -3.721190         1.511803         1.310918
 H        -2.301977         1.465047        -1.172393
 H        -1.540226         2.540276         0.088029
 H         1.004321         0.526008         0.725376
 H        -2.157560        -0.939887        -0.832512
 H        -1.014190        -1.756585         0.274802
