19
Iteration:   597charge 0 multiplicity 1
 O        -3.778104        -1.541522         0.955714
 C        -2.665368        -0.665781         1.178542
 C        -1.907582        -0.540363         2.549393
 C        -1.351163         0.702555         1.845484
 C        -2.754485         0.982939         1.121033
 C        -2.119214         1.531239        -0.101340
 C        -0.972133         0.569784         0.305020
 O         0.356723         0.652803        -0.089405
 C        -1.592139        -0.860310         0.149087
 H        -4.544568        -1.212718         1.419025
 H        -2.533821        -0.148783         3.330401
 H        -1.300636        -1.333301         2.978696
 H        -0.869906         1.492318         2.400391
 H        -3.616490         1.374233         1.549163
 H        -2.668507         1.569005        -1.048080
 H        -1.704360         2.520337         0.128485
 H         0.341567         0.579271        -1.073975
 H        -1.884123        -1.124722        -0.807325
 H        -0.877215        -1.624540         0.364239
