19
Iteration:  1342charge 0 multiplicity 1
 C         4.809574         0.179267        -0.357120
 C         3.296655         0.196299        -0.309606
 C         2.265644         0.892949        -1.181260
 C         1.365988         0.204426        -0.041995
 C         2.336968        -1.010930        -0.118720
 O         2.474822        -1.661962         1.209885
 C         2.427969        -0.461691         1.980560
 C         2.467836         0.634352         0.935174
 O         2.636831         1.975288         1.378638
 H         5.332975        -0.121446         0.588552
 H         5.138426        -0.452763        -1.202158
 H         5.139520         1.282192        -0.441489
 H         2.380664         2.099159        -1.175559
 H         2.166668         0.716890        -2.240253
 H         0.360999         0.307519        -0.041134
 H         2.253365        -1.888862        -0.824211
 H         1.544471        -0.483116         2.620039
 H         3.265417        -0.247956         2.689241
 H         2.092417         2.499645         0.703003
