19
Iteration:  1250
 C         4.858014         0.140855        -0.452276
 C         3.313763         0.179349        -0.250499
 C         2.342343         0.846972        -1.207820
 C         1.432371         0.246827        -0.082404
 C         2.329935        -1.085472        -0.115393
 O         2.393563        -1.654298         1.214998
 C         2.578637        -0.421961         2.011635
 C         2.452728         0.678218         0.957488
 O         2.409798         2.016501         1.460612
 H         5.308984        -0.850869        -0.140415
 H         4.934889         0.207858        -1.592655
 H         5.428903         0.856981         0.217208
 H         2.257034         2.043019        -1.358473
 H         1.988230         0.553819        -2.251607
 H         0.331309         0.516768        -0.056003
 H         2.162291        -1.738425        -1.002351
 H         1.929178        -0.273852         2.885847
 H         3.579030        -0.342622         2.468097
 H         2.631131         2.557203         0.675759
