19
Iteration:  1996charge 0 multiplicity 1
 C         4.755044         0.071868        -0.492395
 C         3.289546         0.175733        -0.285729
 C         2.381153         0.977556        -1.206626
 C         1.435071         0.242567        -0.077826
 C         2.434871        -1.042367        -0.147985
 O         2.377400        -1.585742         1.198510
 C         2.582101        -0.456251         2.047444
 C         2.431010         0.645082         1.026397
 O         2.470417         1.963450         1.467870
 H         5.307188        -0.493181         0.251503
 H         4.846284        -0.502396        -1.366874
 H         5.198511         1.036479        -0.589823
 H         2.208333         2.109709        -1.091843
 H         2.366582         0.581850        -2.171737
 H         0.291389         0.302614        -0.196058
 H         2.270959        -1.691899        -0.956438
 H         1.774827        -0.478342         2.806427
 H         3.542213        -0.419845         2.535893
 H         2.027034         2.488434         0.740451
