19
Iteration:  4563
 C         4.805298         0.181505        -0.425513
 C         3.350310         0.332705        -0.249242
 C         2.291218         1.246898        -0.979611
 C         1.355954         0.427266        -0.056689
 C         2.322202        -0.821868        -0.286789
 O         2.470502        -1.788285         0.775782
 C         2.471706        -0.873356         1.898432
 C         2.478230         0.565029         1.113865
 O         2.502588         1.835739         1.700144
 H         5.105032        -0.051603        -1.459672
 H         5.349447         0.971819         0.130042
 H         5.196102        -0.639710         0.180453
 H         2.247270         2.257416        -0.512615
 H         2.362704         1.171410        -2.066978
 H         0.240366         0.312254        -0.087987
 H         2.087847        -1.430666        -1.237050
 H         1.606722        -0.973190         2.594234
 H         3.398816        -1.133554         2.406378
 H         3.037426         2.400852         1.236464
