19
Iteration:  3720charge 0 multiplicity 1
 C         4.850769         0.161240        -0.406760
 C         3.335543         0.348879        -0.188091
 C         2.279496         1.143402        -1.186738
 C         1.375524         0.479216        -0.067209
 C         2.316922        -0.872853        -0.390982
 O         2.404197        -1.677473         0.804024
 C         2.488120        -0.789176         1.815816
 C         2.411161         0.563502         1.091118
 O         2.588719         1.710712         2.003484
 H         4.981246        -0.699505        -1.000055
 H         5.178432         1.101806        -0.898781
 H         5.456965         0.256832         0.487636
 H         2.325016         2.220042        -1.340858
 H         2.103279         0.577852        -2.158315
 H         0.262474         0.558495        -0.098111
 H         2.237944        -1.458023        -1.308773
 H         1.607346        -0.790041         2.497217
 H         3.399957        -0.787039         2.442979
 H         2.971504         2.415853         1.435454
