19
Iteration:  1798charge 0 multiplicity 1
 C         4.796810         0.066943        -0.439267
 C         3.350165         0.122548        -0.345744
 C         2.282147         0.932792        -1.205761
 C         1.403701         0.272990        -0.073539
 C         2.368753        -1.052055        -0.148579
 O         2.493544        -1.564517         1.149992
 C         2.508742        -0.446844         2.021669
 C         2.509183         0.635702         0.977334
 O         2.424930         1.984336         1.538194
 H         5.153394        -0.084791         0.605837
 H         5.297203        -0.761183        -1.053221
 H         5.233874         1.110248        -0.741067
 H         2.497129         2.084546        -1.260525
 H         1.848276         0.642176        -2.173416
 H         0.226899         0.334099        -0.032644
 H         1.970670        -1.765223        -0.926956
 H         1.532576        -0.362735         2.616726
 H         3.353788        -0.420708         2.722439
 H         2.662002         2.466977         0.777730
