19
Iteration:   747
 C         4.859249         0.075124        -0.371103
 C         3.331068         0.206581        -0.303290
 C         2.247958         0.817916        -1.327238
 C         1.356810         0.274083        -0.150805
 C         2.320657        -0.996004        -0.154532
 O         2.408489        -1.540522         1.187553
 C         2.625215        -0.485369         2.058001
 C         2.452925         0.723721         0.952426
 O         2.509808         1.936960         1.548292
 H         5.447009        -0.717676         0.185642
 H         5.226770         0.150021        -1.470704
 H         5.212114         1.022257        -0.004074
 H         2.210660         1.984386        -1.300806
 H         2.108525         0.340673        -2.264722
 H         0.327223         0.092457         0.061908
 H         2.186197        -1.924086        -0.803919
 H         1.798045        -0.413605         2.785482
 H         3.555635        -0.398521         2.650502
 H         2.011735         2.477986         0.924020
