19
Iteration:   283charge 0 multiplicity 1
 C         4.885505         0.185065        -0.346978
 C         3.319412         0.219655        -0.279854
 C         2.291574         0.730706        -1.327892
 C         1.397943         0.317381        -0.171923
 C         2.268290        -0.989873        -0.121162
 O         2.321593        -1.662426         1.287029
 C         2.626929        -0.375594         1.991719
 C         2.394936         0.630959         0.898981
 O         2.552239         1.935321         1.526928
 H         5.215105        -0.348026         0.522974
 H         5.325365        -0.408927        -1.206990
 H         5.292983         1.357417        -0.308292
 H         2.204603         1.937363        -1.555602
 H         1.916308         0.328930        -2.261629
 H         0.348924         0.326053        -0.012735
 H         2.148748        -1.732309        -0.864055
 H         2.011911        -0.255562         2.940073
 H         3.749362        -0.345702         2.269486
 H         2.687129         2.497299         0.721908
