19
Iteration:  3926
 C         4.791133         0.267438        -0.296254
 C         3.302864         0.213809        -0.283654
 C         2.321158         1.115984        -1.031191
 C         1.304110         0.463340        -0.115491
 C         2.243567        -0.904037        -0.387728
 O         2.450305        -1.676628         0.801952
 C         2.484081        -0.675443         1.844406
 C         2.422811         0.558159         1.053588
 O         2.725955         1.675811         1.830080
 H         5.096976         0.899311        -1.095353
 H         5.148573         0.742409         0.671202
 H         5.244574        -0.730686        -0.293537
 H         2.526054         2.194549        -0.822456
 H         2.093873         0.836538        -2.019717
 H         0.183840         0.460373        -0.052515
 H         2.157745        -1.482519        -1.300962
 H         1.689464        -0.759312         2.589379
 H         3.440620        -0.774161         2.383539
 H         2.270129         2.490292         1.395732
