19
Iteration:  4520
 C         4.858033         0.155003        -0.456118
 C         3.327764         0.328858        -0.319185
 C         2.336813         1.235421        -1.078104
 C         1.402910         0.332822        -0.141657
 C         2.313821        -0.826231        -0.308326
 O         2.391005        -1.694686         0.902787
 C         2.504509        -0.735790         1.859490
 C         2.475591         0.587943         1.007974
 O         2.524695         1.692602         1.938689
 H         5.096561         0.607058        -1.484436
 H         5.388185         0.611523         0.416114
 H         5.182166        -0.904849        -0.494879
 H         2.413357         2.266646        -0.770867
 H         2.146575         1.006879        -2.108123
 H         0.292237         0.300055        -0.026016
 H         2.357625        -1.423584        -1.282307
 H         1.598003        -0.690751         2.484845
 H         3.347021        -0.726151         2.539512
 H         1.998803         2.388027         1.473675
