19
Iteration:  3135charge 0 multiplicity 1
 C         4.844676         0.237282        -0.410786
 C         3.281698         0.191699        -0.307051
 C         2.271357         1.123073        -1.085682
 C         1.402965         0.360148        -0.020457
 C         2.260472        -0.907586        -0.301421
 O         2.347355        -1.672487         0.879828
 C         2.658352        -0.756015         1.883241
 C         2.469236         0.579811         1.057159
 O         2.480971         1.882645         1.696663
 H         5.168495         0.204306         0.619048
 H         5.223308        -0.604659        -0.990380
 H         5.235942         1.090439        -1.014629
 H         2.435640         2.172186        -0.777792
 H         2.006787         0.845043        -2.100192
 H         0.228659         0.319694         0.214166
 H         2.132792        -1.526997        -1.170903
 H         2.073448        -0.763533         2.817446
 H         3.644828        -0.821583         2.368484
 H         3.423229         2.125391         1.998386
