19
Iteration:  1258charge 0 multiplicity 1
 C         4.857800         0.102733        -0.453929
 C         3.345994         0.166302        -0.302393
 C         2.304587         0.834945        -1.219011
 C         1.403883         0.212764        -0.055521
 C         2.331029        -1.022109        -0.112795
 O         2.350633        -1.607546         1.193131
 C         2.656778        -0.392905         2.034352
 C         2.418196         0.688939         0.954621
 O         2.399312         2.005439         1.484344
 H         5.293858        -0.869075        -0.146023
 H         5.193709         0.355506        -1.467465
 H         5.307881         0.884760         0.099017
 H         2.553065         1.824061        -1.188163
 H         2.287463         0.431526        -2.324957
 H         0.222666         0.350748        -0.109369
 H         2.289042        -1.831372        -0.951141
 H         1.870771        -0.567643         2.784381
 H         3.661140        -0.323959         2.495157
 H         2.594437         2.638710         0.807925
