19
Iteration:  4822charge 0 multiplicity 1
 C         4.780655         0.399521        -0.418549
 C         3.328708         0.340614        -0.319982
 C         2.202088         1.107001        -1.175392
 C         1.365321         0.376637        -0.106239
 C         2.304283        -0.883553        -0.281474
 O         2.413764        -1.800068         0.888501
 C         2.439814        -0.710212         1.902003
 C         2.543886         0.612782         0.988474
 O         2.674813         1.656075         1.927270
 H         5.225723         1.010738        -1.208721
 H         5.312913         0.616411         0.582589
 H         5.222866        -0.615326        -0.625392
 H         2.185090         2.226593        -1.110404
 H         2.066955         0.851987        -2.213268
 H         0.259891         0.187578         0.118910
 H         2.088633        -1.433155        -1.224027
 H         1.519700        -0.658626         2.492749
 H         3.266390        -0.827143         2.622343
 H         2.963125         2.365030         1.425643
