19
Iteration:  4980
 C         4.829297         0.507377        -0.492917
 C         3.338811         0.237780        -0.279338
 C         2.250792         1.161029        -1.024371
 C         1.417571         0.388157         0.024813
 C         2.333372        -0.905376        -0.310064
 O         2.218910        -1.765455         0.840689
 C         2.523969        -0.800044         1.883381
 C         2.560191         0.487271         1.052160
 O         2.586743         1.723740         1.784375
 H         5.348327        -0.126861        -1.305913
 H         4.986107         1.554914        -0.642936
 H         5.248939         0.103245         0.459201
 H         2.494564         2.212299        -0.905543
 H         2.224598         0.834721        -2.111276
 H         0.368948         0.499465         0.201691
 H         2.337849        -1.449736        -1.287777
 H         1.706058        -0.833313         2.574015
 H         3.397918        -1.188305         2.378794
 H         3.042234         2.479323         1.371675
