19
Iteration:   104
 C         4.803755         0.099958        -0.373482
 C         3.316414         0.076334        -0.289118
 C         2.235194         0.830858        -1.104434
 C         1.324684         0.224905        -0.040621
 C         2.333061        -0.954376        -0.151480
 O         2.531136        -1.544748         1.144602
 C         2.444866        -0.385087         2.000162
 C         2.455700         0.657913         0.926366
 O         2.572309         2.000574         1.284995
 H         5.408940        -0.556533         0.411219
 H         5.418345        -0.146015        -1.267524
 H         5.042620         1.163992        -0.096552
 H         2.170291         1.929194        -1.251471
 H         1.979789         0.302920        -2.131947
 H         0.238102         0.279985         0.158349
 H         2.204769        -1.799444        -0.853537
 H         1.540389        -0.385859         2.693162
 H         3.357172        -0.465326         2.683972
 H         3.123537         2.129336         2.133792
