19
Iteration:   873charge 0 multiplicity 1
 C         4.769283         0.152517        -0.387548
 C         3.270050         0.121510        -0.302554
 C         2.285663         0.838480        -1.190857
 C         1.420092         0.306368        -0.101475
 C         2.379978        -1.061765        -0.113195
 O         2.404407        -1.598368         1.139102
 C         2.636412        -0.464026         1.997842
 C         2.407718         0.705560         0.965184
 O         2.533123         1.983676         1.507584
 H         5.167657        -0.230242         0.585163
 H         5.098168        -0.569036        -1.090035
 H         5.253778         1.156361        -0.566715
 H         2.249693         1.899823        -1.283358
 H         2.006739         0.514884        -2.302902
 H         0.250724         0.406376        -0.154771
 H         2.268310        -1.867446        -0.931877
 H         1.870406        -0.286077         2.768426
 H         3.673435        -0.602904         2.339446
 H         2.233868         2.576261         0.861701
