19
Iteration:  3169charge 0 multiplicity 1
 C         4.770959         0.161342        -0.429792
 C         3.297611         0.319276        -0.318812
 C         2.237744         1.090659        -1.196053
 C         1.383933         0.368668        -0.057946
 C         2.219306        -0.909638        -0.266800
 O         2.467512        -1.636363         0.917102
 C         2.636365        -0.672894         1.865882
 C         2.510891         0.541558         0.981429
 O         2.553553         1.831908         1.835180
 H         5.316859         0.391729         0.493274
 H         4.855789        -0.936164        -0.512366
 H         5.308567         0.763946        -1.147031
 H         2.305675         2.241797        -1.143348
 H         2.072452         0.950919        -2.251088
 H         0.223184         0.324758         0.185069
 H         2.245743        -1.498941        -1.172536
 H         1.698245        -0.626877         2.464000
 H         3.640488        -0.717220         2.276462
 H         2.419001         1.537505         2.806042
