19
Iteration:   655
 C         4.818146         0.206396        -0.477386
 C         3.370666         0.236175        -0.247087
 C         2.310108         0.815325        -1.215753
 C         1.419943         0.154726        -0.196099
 C         2.217215        -1.060429        -0.187972
 O         2.315535        -1.622888         1.211218
 C         2.591542        -0.424010         2.042129
 C         2.551693         0.631598         0.986938
 O         2.499018         2.013001         1.549112
 H         5.282886         0.001011         0.495209
 H         5.210270        -0.425944        -1.204889
 H         4.998816         1.356486        -0.738030
 H         2.162253         1.969227        -1.120616
 H         2.354381         0.277260        -2.164302
 H         0.305954         0.202713        -0.398860
 H         2.121671        -1.879139        -0.857723
 H         1.882223        -0.525007         2.889557
 H         3.613198        -0.405770         2.542835
 H         2.781016         2.813973         0.915849
