19
Iteration:  3250
 C         4.845308         0.376459        -0.471588
 C         3.355364         0.259599        -0.302377
 C         2.267739         1.123971        -1.065835
 C         1.382915         0.360605         0.031729
 C         2.212958        -0.932860        -0.277214
 O         2.306529        -1.721946         0.847709
 C         2.586596        -0.718398         1.905210
 C         2.487089         0.534014         0.985334
 O         2.626197         1.735668         1.799735
 H         5.124468         1.394114        -0.732165
 H         5.296871         0.229095         0.504575
 H         5.371481        -0.322972        -1.103960
 H         2.396302         2.184077        -0.943608
 H         2.160532         0.845677        -2.161693
 H         0.398938         0.408954         0.257524
 H         1.954549        -1.448202        -1.246741
 H         1.852665        -0.763665         2.702537
 H         3.481392        -1.085821         2.376611
 H         2.483927         2.632075         1.300390
