19
Iteration:  2017
 C         4.977535         0.109301        -0.500194
 C         3.363503         0.164938        -0.297814
 C         2.278657         0.936837        -1.162058
 C         1.361969         0.190658        -0.127592
 C         2.248962        -1.027799        -0.119037
 O         2.362298        -1.608307         1.188540
 C         2.566922        -0.448948         2.033098
 C         2.465458         0.644466         0.979888
 O         2.431975         1.980388         1.501496
 H         5.561907        -0.131335         0.371756
 H         5.267387        -0.610533        -1.243924
 H         5.281408         1.075905        -0.775350
 H         2.597558         2.018990        -0.878013
 H         2.150370         0.724109        -2.161121
 H         0.227999         0.436010        -0.061782
 H         2.125701        -1.743111        -0.966291
 H         1.976680        -0.348951         2.964213
 H         3.603580        -0.459207         2.301517
 H         2.436280         2.593922         0.714110
