19
Iteration:  2805
 C         4.730362         0.191375        -0.481384
 C         3.307209         0.301903        -0.257449
 C         2.266573         1.019976        -1.158592
 C         1.391243         0.255571        -0.110126
 C         2.361741        -0.956921        -0.229959
 O         2.417443        -1.703136         1.001538
 C         2.509973        -0.623148         1.996455
 C         2.486542         0.603613         1.024444
 O         2.566185         1.964231         1.619153
 H         5.311748         0.307628         0.451837
 H         4.965505        -0.817990        -0.798086
 H         5.007333         0.850192        -1.281279
 H         2.290833         1.999012        -0.899309
 H         2.270935         0.776754        -2.239098
 H         0.354751         0.394565         0.092682
 H         2.203008        -1.508312        -1.107046
 H         1.598056        -0.485210         2.548366
 H         3.363388        -0.735047         2.583238
 H         3.352415         1.879646         2.287446
