19
Iteration:  2424charge 0 multiplicity 1
 C         4.825852         0.250353        -0.328967
 C         3.336283         0.204917        -0.249475
 C         2.248146         0.931022        -1.216371
 C         1.323180         0.259400        -0.137425
 C         2.255999        -1.015805        -0.186367
 O         2.412244        -1.645116         1.096535
 C         2.529408        -0.508983         2.035648
 C         2.479618         0.650726         0.967236
 O         2.649999         1.903517         1.520568
 H         5.273109         1.220550        -0.622742
 H         5.262727        -0.067263         0.613007
 H         5.156350        -0.439085        -1.178973
 H         2.173099         2.018348        -1.414948
 H         2.269349         0.178926        -2.220529
 H         0.195903         0.353567         0.022808
 H         2.098799        -1.776329        -0.977792
 H         1.732490        -0.533793         2.805674
 H         3.409940        -0.670735         2.618843
 H         2.555573         2.666961         0.848129
