19
Iteration:  2825
 C         4.799973         0.088805        -0.417576
 C         3.276975         0.254484        -0.311660
 C         2.208726         0.957239        -1.184770
 C         1.356715         0.399286        -0.027223
 C         2.313279        -0.945188        -0.237739
 O         2.551555        -1.664113         0.963350
 C         2.486734        -0.582946         1.910264
 C         2.420529         0.727544         1.004837
 O         2.568909         1.907527         1.716668
 H         5.415349         0.444348         0.414368
 H         5.216622        -0.887682        -0.535497
 H         5.116574         0.586826        -1.282300
 H         2.263543         2.007790        -1.429810
 H         2.030357         0.377869        -2.107127
 H         0.284874         0.358837        -0.098162
 H         2.261564        -1.687712        -1.212627
 H         1.620205        -0.857815         2.532289
 H         3.387653        -0.461534         2.489814
 H         3.221721         1.787682         2.489195
