19
Iteration:   216
 C         4.926952         0.065094        -0.481512
 C         3.326231         0.156261        -0.232916
 C         2.262043         0.828808        -1.164447
 C         1.313379         0.207168        -0.128210
 C         2.232973        -0.949049        -0.130404
 O         2.595474        -1.545300         1.199082
 C         2.386079        -0.424488         2.053645
 C         2.431710         0.682469         1.015710
 O         2.525567         1.985510         1.343951
 H         5.217055        -0.577998         0.347304
 H         5.116388        -0.600020        -1.386548
 H         5.368483         1.174800        -0.524733
 H         2.247106         2.039165        -1.199147
 H         2.099859         0.559790        -2.208277
 H         0.239880         0.120717        -0.054152
 H         2.286707        -1.615318        -0.938906
 H         1.385825        -0.395918         2.609332
 H         3.217489        -0.308642         2.838024
 H         3.434665         2.115780         1.619270
