19
Iteration:   781
 C         4.839970         0.185678        -0.451966
 C         3.317399         0.104239        -0.250822
 C         2.341665         0.865921        -1.203927
 C         1.411752         0.286509        -0.084488
 C         2.357961        -1.027069        -0.148911
 O         2.316049        -1.661203         1.202639
 C         2.619731        -0.410718         2.072148
 C         2.432170         0.650128         0.983793
 O         2.466188         1.990318         1.430342
 H         5.438137        -0.704716        -0.218943
 H         4.982605         0.457854        -1.568228
 H         5.134862         1.062412         0.100326
 H         2.326353         2.000959        -1.285825
 H         2.240766         0.581618        -2.252159
 H         0.322213         0.139732         0.061477
 H         2.209062        -1.783746        -0.893781
 H         1.891471        -0.455560         2.885499
 H         3.578752        -0.655391         2.449232
 H         2.608854         2.578992         0.587924
