19
Iteration:  3719
 C         4.836586         0.163970        -0.400672
 C         3.337650         0.337983        -0.195074
 C         2.278868         1.147887        -1.180830
 C         1.374020         0.482132        -0.075268
 C         2.312706        -0.869288        -0.398685
 O         2.409926        -1.685016         0.811884
 C         2.489674        -0.781879         1.821691
 C         2.412164         0.561414         1.084686
 O         2.588558         1.714587         2.005875
 H         5.008934        -0.681596        -1.025743
 H         5.187066         1.096818        -0.931307
 H         5.456968         0.235316         0.464146
 H         2.335753         2.260870        -1.351026
 H         2.136034         0.615843        -2.160545
 H         0.285944         0.572869        -0.078975
 H         2.257613        -1.523319        -1.316637
 H         1.612275        -0.825377         2.485540
 H         3.371257        -0.777931         2.473685
 H         2.973021         2.385569         1.471257
