19
Iteration:   931
 C         4.813218         0.095723        -0.526651
 C         3.314908         0.151613        -0.287362
 C         2.348178         0.880530        -1.316721
 C         1.397294         0.207509        -0.056338
 C         2.325903        -0.952099        -0.163409
 O         2.487289        -1.614682         1.175296
 C         2.480878        -0.450721         2.045939
 C         2.393644         0.678643         1.036027
 O         2.514126         2.009460         1.565729
 H         5.180583        -0.215893         0.480297
 H         5.077629        -0.652517        -1.268333
 H         5.186148         1.061858        -0.721835
 H         2.353645         1.977748        -1.345492
 H         2.225617         0.369554        -2.232239
 H         0.401510         0.074826        -0.016912
 H         2.258494        -1.787125        -0.876237
 H         1.611761        -0.316744         2.723400
 H         3.371443        -0.579552         2.744042
 H         2.525960         2.765927         0.860443
