19
Iteration:  1458charge 0 multiplicity 1
 C         4.758436         0.080202        -0.358611
 C         3.313408         0.197099        -0.341848
 C         2.241711         0.937097        -1.145169
 C         1.399364         0.229520        -0.091744
 C         2.409498        -1.053125        -0.147107
 O         2.515880        -1.677616         1.161684
 C         2.472725        -0.469657         2.089786
 C         2.444148         0.676417         0.999837
 O         2.559753         2.074015         1.371664
 H         5.107442        -0.788696         0.126526
 H         5.056377        -0.061500        -1.391027
 H         5.309709         0.859614         0.009407
 H         2.483926         1.930193        -1.253860
 H         2.018152         0.568073        -2.236205
 H         0.231964         0.102287        -0.187718
 H         2.193408        -1.756915        -0.862888
 H         1.539639        -0.575441         2.717499
 H         3.296815        -0.178691         2.736555
 H         2.191154         2.736021         0.724439
