19
Iteration:  2182
 C         4.810237         0.031821        -0.408096
 C         3.320203         0.148162        -0.319649
 C         2.245187         0.763334        -1.235898
 C         1.434533         0.281418        -0.081370
 C         2.293775        -0.993547        -0.162904
 O         2.544378        -1.537488         1.145874
 C         2.458854        -0.351557         1.940652
 C         2.498122         0.701804         0.942787
 O         2.492727         1.972583         1.636704
 H         5.207257        -1.022786        -0.340000
 H         5.165526         0.362397        -1.402458
 H         5.375797         0.621922         0.352032
 H         1.981860         1.875115        -1.233263
 H         2.139398         0.336113        -2.151370
 H         0.259444         0.172136        -0.021250
 H         2.358874        -1.758234        -0.843223
 H         1.439990        -0.349444         2.550337
 H         3.325193        -0.406682         2.592102
 H         2.529177         2.582239         0.851490
