19
Iteration:  3748
 C         4.848526         0.226673        -0.347891
 C         3.353660         0.337574        -0.280030
 C         2.291327         1.198525        -1.068693
 C         1.397532         0.362056        -0.037308
 C         2.288732        -0.899886        -0.414544
 O         2.254076        -1.712258         0.782320
 C         2.552916        -0.764873         1.850251
 C         2.533782         0.553294         1.019832
 O         2.604150         1.734789         1.919384
 H         5.057059        -0.798729        -0.787151
 H         5.286612         1.104539        -0.840897
 H         5.222683         0.327523         0.681815
 H         2.318378         2.317362        -0.920156
 H         2.231450         0.913551        -2.092140
 H         0.341939         0.341565         0.125847
 H         2.227504        -1.429013        -1.423046
 H         1.715572        -0.705111         2.524487
 H         3.504339        -0.820918         2.390922
 H         2.266866         2.563884         1.429209
