19
Iteration:  4284
 C         4.832950         0.302001        -0.224315
 C         3.314707         0.240609        -0.358960
 C         2.213792         1.143839        -1.163745
 C         1.418866         0.351401        -0.140250
 C         2.227896        -0.841528        -0.385597
 O         2.368502        -1.681431         0.804433
 C         2.480416        -0.626855         1.878116
 C         2.475005         0.572178         1.016115
 O         2.750628         1.609503         1.925520
 H         5.372202         0.389646        -1.179713
 H         5.106905         1.095259         0.506090
 H         5.203042        -0.609340         0.258596
 H         1.882806         2.181511        -1.110872
 H         2.005130         0.773777        -2.209829
 H         0.399023         0.304408         0.189172
 H         2.099339        -1.536401        -1.304123
 H         1.663377        -0.680353         2.585302
 H         3.447783        -0.671748         2.388768
 H         2.460069         2.538670         1.711716
