19
Iteration:    66
 C         4.835924         0.061676        -0.493328
 C         3.323008         0.220059        -0.312136
 C         2.305275         0.806097        -1.265585
 C         1.318504         0.197152        -0.193403
 C         2.284602        -0.963984        -0.088104
 O         2.453826        -1.586593         1.224338
 C         2.560705        -0.482986         2.091383
 C         2.463099         0.742607         0.979012
 O         2.487954         2.009181         1.498859
 H         5.158906        -0.299985         0.441503
 H         5.179834        -0.527154        -1.331016
 H         5.190580         1.081429        -0.509060
 H         2.127130         1.899209        -1.348843
 H         2.395686         0.384111        -2.202665
 H         0.230544         0.250848        -0.168194
 H         2.327473        -1.691163        -0.884437
 H         1.643822        -0.339537         2.672366
 H         3.325201        -0.467841         2.834347
 H         3.356521         2.331087         1.288725
