19
Iteration:  1598charge 0 multiplicity 1
 C         4.766768         0.101275        -0.422522
 C         3.284428         0.268758        -0.262056
 C         2.277070         0.872746        -1.283397
 C         1.366109         0.277959        -0.103765
 C         2.417788        -0.998828        -0.085829
 O         2.462438        -1.604611         1.132668
 C         2.489645        -0.449783         2.026604
 C         2.435069         0.661952         0.989182
 O         2.584645         1.927129         1.491444
 H         5.134122        -0.229456         0.634143
 H         5.053428        -0.817630        -1.114437
 H         5.336414         1.015958        -0.649958
 H         2.417176         1.948968        -1.411037
 H         2.122730         0.403214        -2.217237
 H         0.368388         0.090730        -0.164664
 H         2.542414        -1.839626        -0.717215
 H         1.597381        -0.469331         2.729963
 H         3.349124        -0.273620         2.662438
 H         1.989330         2.551630         0.940810
