19
Iteration:  2528
 C         4.821083         0.129851        -0.393592
 C         3.347742         0.288752        -0.239420
 C         2.281394         0.899271        -1.246898
 C         1.424464         0.327080        -0.096996
 C         2.229047        -0.986484        -0.175681
 O         2.350915        -1.627788         1.039775
 C         2.648917        -0.515690         1.990754
 C         2.477106         0.636351         1.021437
 O         2.500084         1.911284         1.593762
 H         5.358393         0.609831        -1.234931
 H         5.406844         0.577978         0.513283
 H         5.163607        -0.920402        -0.371941
 H         2.403376         2.075166        -1.426885
 H         2.181644         0.313927        -2.137607
 H         0.319011         0.320800         0.134452
 H         2.214967        -1.791090        -1.061772
 H         1.931057        -0.716116         2.802328
 H         3.773477        -0.556294         2.194539
 H         1.972304         2.549601         1.115163
