19
Iteration:  2617charge 0 multiplicity 1
 C         4.918807         0.227647        -0.449258
 C         3.316904         0.214800        -0.332709
 C         2.236746         0.864800        -1.239505
 C         1.379476         0.319169        -0.150057
 C         2.250938        -0.986198        -0.188609
 O         2.375592        -1.671546         1.088595
 C         2.543995        -0.575641         1.969099
 C         2.502043         0.706702         0.961559
 O         2.531274         1.907697         1.739425
 H         5.187159        -0.469130        -1.289086
 H         5.277962         1.278250        -0.615094
 H         5.335765         0.055973         0.565216
 H         2.205241         2.069150        -1.245183
 H         2.158543         0.537696        -2.271856
 H         0.236618         0.233462         0.032900
 H         1.886627        -1.673972        -1.009157
 H         1.618093        -0.604803         2.610718
 H         3.546409        -0.499134         2.568641
 H         3.348844         2.380987         1.537188
