19
Iteration:  2454
 C         4.816505         0.207637        -0.397153
 C         3.274483         0.157107        -0.250889
 C         2.237378         1.004504        -1.088020
 C         1.401153         0.251997        -0.084783
 C         2.393284        -1.076577        -0.220819
 O         2.467652        -1.667823         1.084396
 C         2.398051        -0.536209         2.009698
 C         2.453979         0.629591         1.015528
 O         2.625730         2.023326         1.463015
 H         5.143184         0.990321        -1.136886
 H         5.473039         0.114157         0.446002
 H         5.130954        -0.786367        -0.808400
 H         2.154699         2.065489        -1.207899
 H         2.157477         0.614019        -2.133509
 H         0.264459         0.370547         0.138553
 H         2.157974        -1.745293        -0.995013
 H         1.450429        -0.604218         2.557663
 H         3.219457        -0.710502         2.746944
 H         2.763254         2.693407         0.809204
