19
Iteration:   495charge 0 multiplicity 1
 C         4.814513         0.225442        -0.433893
 C         3.362432         0.197795        -0.294528
 C         2.292889         0.822969        -1.285339
 C         1.415374         0.220960        -0.180580
 C         2.311034        -1.059893        -0.095400
 O         2.365670        -1.602685         1.203044
 C         2.494364        -0.434087         2.071736
 C         2.480821         0.682386         0.933385
 O         2.544519         1.955073         1.558696
 H         5.270022        -0.457147         0.338438
 H         5.080700        -0.272215        -1.378754
 H         5.292963         1.159794        -0.412854
 H         2.444689         1.870952        -1.451297
 H         2.284601         0.259922        -2.250559
 H         0.352010         0.478739        -0.007849
 H         2.174527        -1.942348        -0.843540
 H         1.669265        -0.308056         2.805157
 H         3.448802        -0.595402         2.600063
 H         2.462591         2.647932         0.811417
