19
Iteration:  2836charge 0 multiplicity 1
 C         4.839343         0.076202        -0.393920
 C         3.319276         0.256750        -0.373023
 C         2.210537         0.913781        -1.224984
 C         1.363197         0.384388        -0.053930
 C         2.262684        -0.853043        -0.234534
 O         2.581416        -1.565514         0.956473
 C         2.536240        -0.581604         1.956637
 C         2.421685         0.620041         1.030260
 O         2.528560         1.847000         1.707219
 H         5.262345         0.646350         0.436932
 H         5.000649        -0.975328        -0.350487
 H         5.219641         0.492229        -1.280565
 H         2.191102         1.976075        -1.258016
 H         2.015138         0.476265        -2.233087
 H         0.301868         0.526508         0.064352
 H         1.761866        -1.509714        -1.102733
 H         1.623740        -0.589765         2.592989
 H         3.407030        -0.623887         2.620342
 H         3.128751         1.631096         2.382584
