19
Iteration:   470
 C         4.826735         0.190341        -0.420063
 C         3.373009         0.144292        -0.263619
 C         2.244029         0.880258        -1.135386
 C         1.417810         0.175112        -0.082333
 C         2.343904        -1.061111        -0.128109
 O         2.448366        -1.648839         1.156021
 C         2.336575        -0.388014         1.986194
 C         2.410405         0.685094         1.007540
 O         2.680245         1.998991         1.412038
 H         5.364515        -0.151352         0.478797
 H         5.240871        -0.398531        -1.222373
 H         5.191261         1.277344        -0.614601
 H         2.417907         1.998205        -1.188889
 H         2.147882         0.398110        -2.087872
 H         0.363800         0.240147        -0.073898
 H         2.125101        -1.780440        -0.923336
 H         1.411693        -0.425326         2.556365
 H         3.202147        -0.413727         2.665806
 H         2.157075         2.485968         0.729342
