19
Iteration:  4190charge 0 multiplicity 1
 C         4.836806         0.166792        -0.491415
 C         3.336214         0.326062        -0.230851
 C         2.335242         1.174478        -1.036714
 C         1.357511         0.330517        -0.167577
 C         2.339386        -0.837579        -0.322918
 O         2.404830        -1.636395         0.814274
 C         2.455902        -0.709366         1.896483
 C         2.407757         0.569984         1.030623
 O         2.537433         1.725712         1.945583
 H         5.073064         0.325029        -1.502816
 H         5.547745         0.464177         0.276570
 H         5.102414        -0.938956        -0.334169
 H         2.369567         2.269430        -0.823786
 H         2.303045         1.091455        -2.108054
 H         0.243726         0.220845        -0.142648
 H         2.553625        -1.404114        -1.176134
 H         1.548961        -0.950854         2.515838
 H         3.388719        -0.757336         2.523647
 H         3.062891         2.345202         1.461494
