19
Iteration:  4763
 C         4.822183         0.288860        -0.389172
 C         3.290190         0.285227        -0.206414
 C         2.277924         1.251372        -0.994080
 C         1.309382         0.314021        -0.245979
 C         2.262643        -0.940166        -0.380539
 O         2.379120        -1.678802         0.893047
 C         2.637968        -0.739905         1.888004
 C         2.451952         0.520181         1.093439
 O         2.606316         1.762604         1.812900
 H         5.096056         0.934314        -1.239626
 H         5.344684         0.584718         0.483359
 H         4.912288        -0.768797        -0.631665
 H         1.963737         2.243527        -0.684174
 H         2.230575         1.160126        -2.127869
 H         0.263546         0.295932        -0.117427
 H         2.342745        -1.652928        -1.188004
 H         1.852241        -0.873335         2.706627
 H         3.633732        -1.014883         2.266743
 H         3.066373         2.335866         1.033543
