19
Iteration:   407
 C         4.836727         0.046925        -0.334267
 C         3.265394         0.215216        -0.274330
 C         2.323783         0.795080        -1.335834
 C         1.371766         0.197366        -0.182046
 C         2.301017        -0.941158        -0.083049
 O         2.361980        -1.548811         1.177201
 C         2.678733        -0.417242         1.963234
 C         2.497509         0.683989         0.970496
 O         2.425840         1.978299         1.573053
 H         5.209051        -0.534010         0.549518
 H         5.215276        -0.436175        -1.224792
 H         5.223403         1.070263        -0.279939
 H         2.346861         1.821360        -1.501218
 H         2.276945         0.175912        -2.303326
 H         0.256366         0.144678        -0.089987
 H         2.217037        -1.771063        -0.906625
 H         1.977830        -0.224666         2.800633
 H         3.739200        -0.416499         2.321404
 H         2.727272         2.686971         0.921722
