19
Iteration:  2693
 C         4.756155         0.094262        -0.395534
 C         3.251070         0.215837        -0.340898
 C         2.241234         1.037111        -1.147917
 C         1.382543         0.300722        -0.025898
 C         2.271217        -0.895857        -0.163078
 O         2.569108        -1.615434         0.999828
 C         2.512629        -0.576164         1.967736
 C         2.559335         0.600834         1.026169
 O         2.513119         1.914884         1.486274
 H         5.060624        -0.973549        -0.428799
 H         5.182011         0.617738        -1.256616
 H         5.150681         0.469266         0.548073
 H         2.302432         2.181024        -0.985089
 H         1.995675         0.622880        -2.080475
 H         0.244515         0.144788         0.025433
 H         2.218245        -1.683719        -1.101454
 H         1.554446        -0.440635         2.509474
 H         3.406832        -0.651441         2.586331
 H         2.984249         1.952226         2.323462
