19
Iteration:  2760
 C         4.812391         0.298851        -0.441649
 C         3.342012         0.196277        -0.316107
 C         2.338669         1.043096        -1.098305
 C         1.432178         0.310176        -0.044398
 C         2.202256        -1.014296        -0.192133
 O         2.291748        -1.745375         1.044754
 C         2.592122        -0.639872         1.944585
 C         2.592147         0.633873         1.030690
 O         2.474870         1.944124         1.530024
 H         5.285713        -0.156353         0.451168
 H         5.110012        -0.245100        -1.331230
 H         5.003978         1.333024        -0.597023
 H         2.376612         2.104123        -0.971239
 H         2.152726         0.739851        -2.119629
 H         0.342770         0.259076         0.066179
 H         2.128156        -1.712851        -1.059287
 H         1.798817        -0.619989         2.689479
 H         3.526984        -0.877244         2.368508
 H         3.360955         2.400511         1.687393
