19
Iteration:  2755charge 0 multiplicity 1
 C         4.769306         0.293099        -0.438433
 C         3.327435         0.207453        -0.276199
 C         2.327960         1.035453        -1.124140
 C         1.445507         0.295222        -0.070340
 C         2.198738        -1.003950        -0.178688
 O         2.312871        -1.712913         1.027813
 C         2.583090        -0.646469         1.930235
 C         2.582343         0.586013         1.048836
 O         2.493709         1.960703         1.549288
 H         5.223381        -0.273075         0.376906
 H         5.199936        -0.218797        -1.336559
 H         5.123609         1.380122        -0.507974
 H         2.396906         2.192396        -1.162596
 H         2.167592         0.627899        -2.156695
 H         0.343218         0.206098         0.057225
 H         2.115500        -1.745531        -1.075234
 H         1.832579        -0.491630         2.744383
 H         3.622354        -0.893931         2.369502
 H         3.349586         2.393298         1.736178
