19
Iteration:  1519charge 0 multiplicity 1
 C         4.845195         0.191294        -0.366556
 C         3.296752         0.186593        -0.325334
 C         2.275908         0.748070        -1.307792
 C         1.351299         0.139363        -0.205718
 C         2.334896        -1.023545        -0.147339
 O         2.312106        -1.540310         1.209250
 C         2.620778        -0.484637         2.044935
 C         2.447969         0.737272         0.934058
 O         2.552067         2.026745         1.617565
 H         5.315931        -0.687551         0.208381
 H         5.070490         0.094530        -1.480250
 H         5.215980         1.249052        -0.113677
 H         2.441153         1.872523        -1.321592
 H         2.260653         0.344128        -2.247272
 H         0.310294         0.046896        -0.155501
 H         2.265680        -1.926605        -0.820642
 H         1.875842        -0.689951         2.805048
 H         3.661756        -0.391250         2.466293
 H         2.776514         2.723063         0.898513
