19
Iteration:  4904charge 0 multiplicity 1
 C         4.857987         0.148096        -0.406414
 C         3.318878         0.358427        -0.265487
 C         2.243419         1.220096        -0.949744
 C         1.284422         0.310809        -0.033625
 C         2.258981        -0.873180        -0.359543
 O         2.485256        -1.683738         0.784710
 C         2.584036        -0.750768         1.845043
 C         2.505412         0.534531         1.065607
 O         2.573673         1.796390         1.788822
 H         5.325762        -0.067250        -1.399419
 H         5.309258         1.068741        -0.184151
 H         5.161482        -0.652111         0.281090
 H         2.283853         2.277405        -0.680148
 H         1.989662         0.987272        -2.028384
 H         0.219587         0.338974         0.052038
 H         2.100717        -1.504852        -1.256666
 H         1.691268        -0.829386         2.491367
 H         3.485768        -0.916480         2.419971
 H         1.961398         2.460582         1.351690
