19
Iteration:  4722charge 0 multiplicity 1
 C         4.792033         0.184242        -0.379470
 C         3.288509         0.381405        -0.308031
 C         2.218772         1.102683        -1.144565
 C         1.397343         0.471739        -0.059752
 C         2.243168        -0.869613        -0.357868
 O         2.460700        -1.700551         0.775405
 C         2.656167        -0.798421         1.866965
 C         2.570632         0.591516         1.062306
 O         2.490698         1.746788         1.949914
 H         5.322762         0.327931        -1.317116
 H         5.376272         0.756416         0.446132
 H         4.986113        -0.942098        -0.176425
 H         2.435233         2.177897        -1.159254
 H         2.138427         0.569213        -2.058719
 H         0.341645         0.836783         0.184413
 H         1.987738        -1.518449        -1.208940
 H         1.794920        -0.823646         2.550075
 H         3.560813        -0.859013         2.476596
 H         1.939350         2.315302         1.478140
