19
Iteration:  3882charge 0 multiplicity 1
 C         4.874881         0.199651        -0.450511
 C         3.358115         0.290913        -0.210451
 C         2.295049         1.179273        -0.955997
 C         1.428308         0.291996        -0.023179
 C         2.345396        -0.810315        -0.378768
 O         2.283747        -1.690260         0.790786
 C         2.512095        -0.749145         1.872142
 C         2.487664         0.541626         1.108975
 O         2.494741         1.778594         1.758170
 H         4.919542         0.321740        -1.515366
 H         5.568558         0.946450         0.038276
 H         5.254330        -0.738625        -0.070094
 H         2.291777         2.223503        -0.622387
 H         2.343427         0.933745        -1.957887
 H         0.353558         0.498847        -0.069109
 H         2.276137        -1.404052        -1.296956
 H         1.664136        -0.854739         2.542277
 H         3.451769        -0.869592         2.417626
 H         2.897436         2.539397         1.180166
