19
Iteration:  1728
 C         4.859858         0.251913        -0.335097
 C         3.305241         0.145124        -0.340502
 C         2.248108         0.806001        -1.291130
 C         1.420904         0.249919        -0.092647
 C         2.214743        -1.066009        -0.112076
 O         2.456307        -1.624476         1.184936
 C         2.481715        -0.377921         1.933093
 C         2.469371         0.689456         0.938058
 O         2.599008         1.919230         1.574049
 H         5.278005        -0.601994         0.212247
 H         5.195596         0.062115        -1.357073
 H         5.311053         1.132180         0.007870
 H         2.456350         1.940205        -1.529548
 H         2.042252         0.276219        -2.186700
 H         0.407210         0.244465         0.103848
 H         2.082568        -1.833441        -0.864385
 H         1.640030        -0.262277         2.576425
 H         3.394700        -0.340290         2.494600
 H         2.412242         2.628517         0.983553
