19
Iteration:  1439charge 0 multiplicity 1
 C         4.826425         0.028391        -0.379701
 C         3.297384         0.251933        -0.264757
 C         2.237125         0.896849        -1.169415
 C         1.385140         0.182670        -0.132870
 C         2.332945        -1.034599        -0.116530
 O         2.521373        -1.568253         1.174483
 C         2.454137        -0.392235         1.991104
 C         2.472473         0.699955         0.972028
 O         2.543684         1.934665         1.425048
 H         5.347514        -0.661638         0.332014
 H         5.009504        -0.210071        -1.433433
 H         5.315164         1.078116        -0.180928
 H         2.107086         2.046835        -1.151809
 H         2.292145         0.583447        -2.140388
 H         0.244905         0.249427         0.208823
 H         2.392362        -1.750738        -0.956030
 H         1.638768        -0.460291         2.683957
 H         3.374598        -0.506471         2.602540
 H         2.275494         2.520388         0.622025
