19
Iteration:  2287charge 0 multiplicity 1
 C         4.788763         0.179642        -0.405211
 C         3.282630         0.228061        -0.278198
 C         2.298363         0.708800        -1.255082
 C         1.379424         0.205879        -0.101122
 C         2.322521        -0.954382        -0.159621
 O         2.349422        -1.595395         1.099198
 C         2.608661        -0.472760         1.972974
 C         2.424149         0.725459         1.001798
 O         2.586338         1.973853         1.623128
 H         5.237073         0.250835         0.568501
 H         5.269480        -0.525016        -1.136290
 H         5.087522         1.113910        -0.813934
 H         2.387953         1.846027        -1.415255
 H         2.470580         0.017152        -2.266104
 H         0.349560         0.351385        -0.068596
 H         2.068989        -1.715577        -1.002550
 H         1.847778        -0.523188         2.700014
 H         3.513184        -0.567795         2.633345
 H         2.639537         2.596191         0.919882
