19
Iteration:   887
 C         4.841301         0.104717        -0.433580
 C         3.363198         0.183075        -0.365138
 C         2.277120         0.921940        -1.168628
 C         1.368904         0.184737        -0.112841
 C         2.308122        -0.989539        -0.174134
 O         2.324362        -1.628637         1.193454
 C         2.641326        -0.417196         2.041013
 C         2.488192         0.650560         1.004066
 O         2.460629         1.987475         1.491006
 H         5.246065        -0.116677         0.593139
 H         5.299109        -0.620102        -1.147688
 H         5.211278         1.048435        -0.781149
 H         2.505161         2.031512        -1.086996
 H         2.271473         0.514600        -2.179010
 H         0.330555         0.203524        -0.007387
 H         2.199718        -1.820255        -0.969089
 H         2.084492        -0.612129         2.979985
 H         3.724962        -0.286302         2.455087
 H         2.203633         2.603093         0.681809
