19
Iteration:  2462charge 0 multiplicity 1
 C         4.876001         0.163589        -0.452441
 C         3.303396         0.177177        -0.265305
 C         2.209689         1.017224        -1.132032
 C         1.399750         0.253860        -0.117698
 C         2.290355        -1.037985        -0.150144
 O         2.482295        -1.666765         1.096966
 C         2.405627        -0.523726         2.044327
 C         2.489640         0.639981         0.965350
 O         2.578558         1.958520         1.507536
 H         5.294558         0.961101        -1.082235
 H         5.332537         0.385742         0.602436
 H         5.161630        -0.793478        -0.861582
 H         2.273674         2.153424        -1.013140
 H         2.187740         0.706945        -2.070719
 H         0.341222         0.233300         0.088393
 H         2.343932        -1.778764        -1.067466
 H         1.401043        -0.527118         2.490451
 H         3.295994        -0.510027         2.758078
 H         2.803412         2.561828         0.756594
