19
Iteration:  1684charge 0 multiplicity 1
 C         4.784189         0.169235        -0.412438
 C         3.325423         0.272845        -0.174584
 C         2.276711         0.810981        -1.118001
 C         1.333150         0.208242        -0.073662
 C         2.388537        -1.048145        -0.175374
 O         2.447054        -1.675491         1.172413
 C         2.423484        -0.430271         1.979609
 C         2.413136         0.662596         0.908338
 O         2.644742         2.023849         1.417851
 H         5.058909        -0.795468         0.102657
 H         5.105850         0.160234        -1.480793
 H         5.267599         0.968873         0.107099
 H         2.103508         2.020582        -1.046603
 H         2.248487         0.521347        -2.117156
 H         0.341067         0.090567        -0.162667
 H         2.416391        -1.784123        -0.939441
 H         1.608693        -0.525803         2.669938
 H         3.355725        -0.261028         2.497903
 H         2.793761         2.631203         0.697426
