19
Iteration:   361charge 0 multiplicity 1
 C         4.857298         0.063215        -0.427282
 C         3.339007         0.088805        -0.263873
 C         2.305076         0.834764        -1.150164
 C         1.423835         0.184748        -0.089140
 C         2.289150        -1.001738        -0.197907
 O         2.481918        -1.600238         1.177669
 C         2.449296        -0.330587         2.057164
 C         2.489145         0.737540         0.970342
 O         2.513261         2.019617         1.444969
 H         5.208867        -0.820338         0.089237
 H         4.954860        -0.053566        -1.502434
 H         5.187573         1.151491        -0.060786
 H         2.324749         2.016245        -1.066465
 H         2.271524         0.307433        -2.121892
 H         0.347618         0.065674        -0.203678
 H         2.085182        -1.750914        -1.003103
 H         1.488122        -0.437508         2.582600
 H         3.296146        -0.452195         2.794500
 H         2.188330         2.691789         0.720546
