19
Iteration:  4935
 C         4.738025         0.264079        -0.443506
 C         3.206778         0.363360        -0.234439
 C         2.307990         1.146061        -1.124942
 C         1.305376         0.367297        -0.142994
 C         2.380566        -0.838285        -0.341878
 O         2.468136        -1.688683         0.850858
 C         2.502532        -0.693537         1.857853
 C         2.440458         0.525268         1.086009
 O         2.690523         1.629829         1.950900
 H         4.936402        -0.288925        -1.430602
 H         4.927436         1.330105        -0.526281
 H         5.319101        -0.101538         0.394930
 H         2.342391         2.224210        -1.096120
 H         2.005979         0.737161        -2.104890
 H         0.248788         0.210350        -0.216937
 H         2.307315        -1.482935        -1.210779
 H         1.659943        -0.766051         2.493604
 H         3.418862        -0.714718         2.459903
 H         2.822015         2.518428         1.518523
