19
Iteration:  1291charge 0 multiplicity 1
 C         4.818839         0.086427        -0.345347
 C         3.306247         0.263617        -0.300226
 C         2.225072         0.815749        -1.282832
 C         1.418785         0.251005        -0.160103
 C         2.329070        -1.034813        -0.111073
 O         2.429224        -1.645180         1.213721
 C         2.644234        -0.355896         1.987081
 C         2.419237         0.725485         0.911226
 O         2.497806         1.945476         1.538842
 H         5.089653        -0.915047         0.044692
 H         5.128354         0.032871        -1.394481
 H         5.375346         0.822852         0.137574
 H         2.357512         1.817869        -1.331617
 H         2.287965         0.295274        -2.345317
 H         0.121334         0.335766         0.056269
 H         2.417553        -1.954936        -0.862486
 H         1.745049        -0.300780         2.678786
 H         3.639068        -0.326324         2.482240
 H         2.169509         2.717549         1.088683
