19
Iteration:  2832charge 0 multiplicity 1
 C         4.831301         0.078691        -0.385093
 C         3.327022         0.270196        -0.375091
 C         2.204583         0.903251        -1.215763
 C         1.357882         0.396395        -0.033812
 C         2.280011        -0.894197        -0.246057
 O         2.574385        -1.578605         0.961047
 C         2.523590        -0.603031         1.946032
 C         2.410658         0.659282         1.021964
 O         2.538818         1.866073         1.707619
 H         5.330201         0.572067         0.481190
 H         5.108950        -1.029527        -0.424486
 H         5.103582         0.551286        -1.388689
 H         2.213569         2.087982        -1.220532
 H         2.031104         0.354775        -2.151432
 H         0.214724         0.513519        -0.061686
 H         1.832086        -1.452296        -1.137262
 H         1.564085        -0.669033         2.538322
 H         3.473274        -0.496666         2.636505
 H         3.202790         1.593420         2.453813
