19
Iteration:    43
 C         4.798778         0.117346        -0.461684
 C         3.376200         0.127631        -0.262539
 C         2.358238         0.817353        -1.196971
 C         1.428250         0.277038        -0.058963
 C         2.376607        -1.051214        -0.082148
 O         2.336518        -1.606429         1.194908
 C         2.528504        -0.394180         1.941682
 C         2.441667         0.721340         0.914444
 O         2.448270         1.961247         1.517629
 H         5.281822        -0.304802         0.291811
 H         4.862713        -0.558863        -1.328077
 H         5.191211         1.143111        -0.670086
 H         2.528632         1.945212        -1.392579
 H         2.069244         0.432974        -2.070442
 H         0.365095         0.279022         0.204440
 H         2.239747        -1.770898        -0.880687
 H         2.055197        -0.218425         2.902633
 H         3.554341        -0.265138         2.285436
 H         2.692362         2.601137         0.714093
