19
Iteration:  4447charge 0 multiplicity 1
 C         4.894966         0.302419        -0.269858
 C         3.302370         0.263522        -0.260214
 C         2.230371         1.268957        -0.938598
 C         1.363464         0.386992        -0.020798
 C         2.292562        -0.900088        -0.376779
 O         2.363759        -1.777283         0.821344
 C         2.466640        -0.841228         1.835497
 C         2.426641         0.580872         1.036152
 O         2.730169         1.754665         1.616630
 H         5.365238         0.628685        -1.226147
 H         5.030867         0.970465         0.517895
 H         5.344645        -0.594124         0.114625
 H         2.504237         2.262107        -0.573434
 H         1.987310         1.279747        -2.045853
 H         0.305084         0.328740        -0.028606
 H         2.165524        -1.593223        -1.257917
 H         1.631340        -0.748325         2.559567
 H         3.397668        -0.983351         2.430230
 H         2.148357         2.407632         1.403202
