19
Iteration:  2780
 C         4.936416         0.282641        -0.527225
 C         3.377518         0.151596        -0.267751
 C         2.250677         1.097999        -1.019949
 C         1.399001         0.320579        -0.035028
 C         2.307857        -0.980159        -0.210878
 O         2.300044        -1.666171         1.029214
 C         2.525996        -0.597939         1.988065
 C         2.453276         0.501252         1.039879
 O         2.477954         1.874727         1.468473
 H         5.449107         0.155020         0.433219
 H         5.430534        -0.508834        -1.100218
 H         5.132061         1.196512        -1.034044
 H         2.444835         2.220714        -0.805289
 H         2.050894         0.936834        -2.082423
 H         0.312821         0.452491         0.284802
 H         2.067216        -1.753492        -1.193005
 H         1.769306        -0.450057         2.775853
 H         3.529056        -0.663091         2.376986
 H         3.447565         2.104529         1.746102
