19
Iteration:  4308charge 0 multiplicity 1
 C         4.782716         0.282507        -0.315444
 C         3.277585         0.326654        -0.259640
 C         2.297522         1.112368        -1.058503
 C         1.435641         0.496962        -0.015851
 C         2.281509        -0.878411        -0.327238
 O         2.416315        -1.759226         0.763181
 C         2.457760        -0.806628         1.791704
 C         2.519184         0.508434         1.094923
 O         2.641964         1.760615         1.817349
 H         5.058439        -0.073186        -1.303255
 H         5.188990         1.368647        -0.048621
 H         5.198557        -0.381309         0.533181
 H         2.302296         2.253238        -1.026666
 H         2.178895         0.787608        -2.106841
 H         0.349170         0.545168        -0.008335
 H         1.935477        -1.450734        -1.161879
 H         1.495690        -0.968126         2.267953
 H         3.286645        -0.791437         2.512171
 H         2.559426         2.520505         1.110392
