19
Iteration:   637
 C         4.858424         0.282482        -0.454215
 C         3.313096         0.157798        -0.298947
 C         2.338811         0.770195        -1.329287
 C         1.380521         0.267691        -0.158260
 C         2.328671        -1.061292        -0.042131
 O         2.299316        -1.601251         1.197664
 C         2.576426        -0.437954         2.003488
 C         2.426824         0.679511         0.975519
 O         2.517561         1.929442         1.590384
 H         5.449940        -0.195203         0.389751
 H         5.204383        -0.370872        -1.327646
 H         5.153396         1.283826        -0.665673
 H         2.476565         1.937707        -1.382336
 H         2.159784         0.377057        -2.313563
 H         0.339543         0.133547         0.078304
 H         2.308612        -1.880970        -0.880431
 H         1.963752        -0.180714         2.867268
 H         3.593608        -0.594329         2.347460
 H         2.699928         2.682163         0.908440
