19
Iteration:  3538
 C         4.827220         0.246951        -0.398685
 C         3.314834         0.271662        -0.273356
 C         2.334077         1.208415        -1.005015
 C         1.397324         0.352196        -0.100554
 C         2.228937        -0.944350        -0.378804
 O         2.372518        -1.639709         0.886352
 C         2.471830        -0.683018         1.875077
 C         2.567775         0.524410         1.020653
 O         2.489714         1.715859         1.769257
 H         5.130749         0.629629        -1.384709
 H         5.365290         0.529894         0.438598
 H         5.326426        -0.797031        -0.591467
 H         2.605953         2.188286        -0.491855
 H         2.351989         1.225869        -2.142297
 H         0.314766         0.439017         0.213674
 H         2.134952        -1.528960        -1.212525
 H         1.616228        -0.787084         2.576012
 H         3.438801        -0.771640         2.350985
 H         3.306943         2.277599         1.853247
