19
Iteration:  2879charge 0 multiplicity 1
 C         4.837750         0.122472        -0.467655
 C         3.313365         0.246840        -0.196330
 C         2.282727         1.131473        -1.015020
 C         1.364296         0.255626        -0.083013
 C         2.289624        -0.940926        -0.239644
 O         2.366378        -1.678757         0.941515
 C         2.614943        -0.650053         1.956415
 C         2.427166         0.629216         1.081769
 O         2.478978         1.939234         1.500522
 H         5.359966         1.106814        -0.317369
 H         5.249015        -0.501583         0.329520
 H         5.114198        -0.327541        -1.387245
 H         2.296357         2.188686        -0.759625
 H         2.209928         0.905817        -2.093788
 H         0.304696         0.126294         0.040151
 H         2.344966        -1.585397        -1.217323
 H         2.019847        -0.825350         2.888979
 H         3.714169        -0.605478         2.177869
 H         3.391333         2.161612         1.797092
