19
Iteration:  1177
 C         4.772680         0.213178        -0.360636
 C         3.311407         0.207259        -0.343582
 C         2.236479         0.768458        -1.265730
 C         1.398759         0.263456        -0.111508
 C         2.244580        -1.027818        -0.147125
 O         2.456683        -1.596288         1.161661
 C         2.548833        -0.412600         2.014083
 C         2.467251         0.671012         0.949763
 O         2.606112         1.938478         1.548527
 H         5.033815        -0.075025         0.622686
 H         5.160259        -0.533643        -1.020853
 H         5.169318         1.259093        -0.525976
 H         2.413765         1.846262        -1.503731
 H         2.216273         0.126352        -2.151889
 H         0.335400         0.186381        -0.035713
 H         2.279494        -1.834190        -0.817877
 H         1.712046        -0.484003         2.778300
 H         3.580653        -0.352309         2.581301
 H         2.437978         2.538960         0.865323
