19
Iteration:     4charge 0 multiplicity 1
 C         4.797537         0.133917        -0.371033
 C         3.312360         0.165403        -0.266779
 C         2.280504         0.861377        -1.219538
 C         1.395517         0.220373        -0.130045
 C         2.297208        -1.019932        -0.122050
 O         2.414782        -1.574658         1.203800
 C         2.515538        -0.408608         2.031955
 C         2.483438         0.666720         0.958541
 O         2.618839         2.005627         1.353483
 H         5.288529        -0.549727         0.457748
 H         5.103650        -0.277826        -1.345278
 H         5.276109         1.107281        -0.336064
 H         2.277963         1.920519        -1.225281
 H         2.083960         0.348936        -2.267727
 H         0.310135         0.204201         0.003479
 H         2.172938        -1.876650        -0.798035
 H         1.670739        -0.510789         2.700958
 H         3.561499        -0.604274         2.446941
 H         1.839770         2.265966         1.844746
