19
Iteration:  3478
 C         4.804386         0.228273        -0.327068
 C         3.333828         0.308334        -0.246817
 C         2.282601         1.167235        -1.036643
 C         1.382235         0.406571        -0.028851
 C         2.214192        -0.815998        -0.336652
 O         2.414870        -1.741124         0.822191
 C         2.531483        -0.742381         1.798919
 C         2.529229         0.540432         1.067166
 O         2.624730         1.764329         1.703925
 H         5.122510        -0.065531        -1.340993
 H         5.223503         1.310031        -0.295223
 H         5.072005        -0.452177         0.440337
 H         2.451918         2.241855        -0.866468
 H         2.249078         0.899798        -2.123665
 H         0.305492         0.407736        -0.102689
 H         1.865449        -1.378494        -1.310898
 H         1.626539        -0.845047         2.480239
 H         3.444348        -0.978707         2.476530
 H         2.178983         1.721883         2.511762
