19
Iteration:  4852
 C         4.785526         0.245111        -0.410776
 C         3.303316         0.236498        -0.190508
 C         2.278375         1.134170        -1.060248
 C         1.339478         0.351139        -0.181179
 C         2.282951        -0.830672        -0.343136
 O         2.386210        -1.694810         0.828486
 C         2.632162        -0.698065         1.902647
 C         2.423783         0.586136         1.067233
 O         2.622464         1.707725         1.877775
 H         5.026376         0.834130        -1.264469
 H         5.485672         0.802663         0.248022
 H         5.245234        -0.768019        -0.658919
 H         2.262862         2.258757        -0.963725
 H         2.252116         0.989657        -2.164412
 H         0.230467         0.141785        -0.100041
 H         2.113669        -1.400299        -1.294885
 H         1.985942        -0.932722         2.830818
 H         3.714652        -0.646228         2.127885
 H         2.099375         2.557041         1.512504
