19
Iteration:  4241
 C         4.823320         0.246654        -0.357889
 C         3.328969         0.287639        -0.187645
 C         2.317707         1.164860        -1.014830
 C         1.441741         0.373682        -0.069769
 C         2.230205        -0.898875        -0.378869
 O         2.326320        -1.721325         0.797300
 C         2.533721        -0.780633         1.886943
 C         2.428383         0.550478         1.095334
 O         2.606326         1.802478         1.766188
 H         5.071650         0.925700        -1.229326
 H         5.335910         0.815462         0.563541
 H         5.444342        -0.672943        -0.486877
 H         2.358590         2.279727        -0.875593
 H         2.356965         0.937398        -2.121684
 H         0.381671         0.460314        -0.206486
 H         1.847606        -1.471935        -1.306625
 H         1.827064        -1.008050         2.676569
 H         3.574361        -0.873689         2.275791
 H         2.728469         2.320986         0.994774
