19
Iteration:   290
 C         4.805950         0.195776        -0.333596
 C         3.343116         0.173789        -0.334830
 C         2.285009         0.736073        -1.323593
 C         1.374595         0.257863        -0.150290
 C         2.310865        -0.974108        -0.144369
 O         2.308732        -1.658045         1.273782
 C         2.647334        -0.378073         2.020068
 C         2.442147         0.691287         0.904202
 O         2.582030         1.937508         1.541681
 H         5.209718        -0.357709         0.576385
 H         5.185377        -0.239186        -1.298174
 H         5.068535         1.230071        -0.288830
 H         2.431726         1.846731        -1.382244
 H         2.127230         0.252982        -2.328381
 H         0.268499         0.234292        -0.142457
 H         2.087544        -1.714959        -0.913902
 H         1.881355        -0.047569         2.731128
 H         3.599784        -0.424470         2.517567
 H         2.480873         2.659103         0.813303
