19
Iteration:  3068charge 0 multiplicity 1
 C         4.793162         0.272968        -0.445437
 C         3.326718         0.237057        -0.337936
 C         2.237117         1.047808        -1.236966
 C         1.338925         0.396062        -0.058264
 C         2.233783        -0.934003        -0.225121
 O         2.494476        -1.714260         0.987651
 C         2.472267        -0.587797         1.835755
 C         2.568734         0.608731         1.022520
 O         2.644053         1.719012         1.834151
 H         5.181779        -0.702552        -0.250510
 H         5.105376         0.648178        -1.396498
 H         5.262100         0.930704         0.319556
 H         2.477831         2.100128        -1.147030
 H         2.028094         0.764983        -2.274702
 H         0.263904         0.498865         0.376310
 H         2.220997        -1.486946        -1.123283
 H         1.511997        -0.598931         2.353343
 H         3.159976        -0.782414         2.641887
 H         2.035394         2.397584         1.674223
