19
Iteration:  1501charge 0 multiplicity 1
 C         4.814586         0.181179        -0.380082
 C         3.325215         0.169825        -0.316029
 C         2.269798         0.828388        -1.313261
 C         1.442533         0.252770        -0.142414
 C         2.325541        -1.044472        -0.098834
 O         2.373042        -1.636138         1.216314
 C         2.576634        -0.326694         1.994197
 C         2.431693         0.679633         0.945941
 O         2.529854         1.914374         1.569398
 H         5.155904        -0.715598         0.130836
 H         5.281122         0.181219        -1.385458
 H         5.154113         1.007477         0.166063
 H         2.155276         1.886602        -1.540133
 H         2.158803         0.215990        -2.368729
 H         0.346820         0.294517        -0.038572
 H         2.244790        -1.740657        -0.864354
 H         1.892487        -0.156979         2.894516
 H         3.581385        -0.580792         2.318301
 H         2.451566         2.613899         0.825398
