19
Iteration:  2947
 C         4.772700         0.264089        -0.443715
 C         3.277681         0.285382        -0.330772
 C         2.222176         0.977450        -1.241814
 C         1.394512         0.320169        -0.104533
 C         2.318641        -0.872915        -0.180967
 O         2.430845        -1.642600         0.978081
 C         2.419476        -0.578918         1.958609
 C         2.485163         0.616428         1.021662
 O         2.645342         1.747877         1.739212
 H         5.156797         0.698270        -1.370712
 H         5.218117         0.841280         0.338727
 H         5.289901        -0.703301        -0.406258
 H         2.185096         2.026365        -1.425897
 H         2.187602         0.466226        -2.258594
 H         0.312004         0.380286        -0.052397
 H         2.354410        -1.549961        -1.031028
 H         1.588021        -0.746876         2.722801
 H         3.391090        -0.575875         2.522303
 H         3.511545         1.684784         2.316621
