19
Iteration:  4154charge 0 multiplicity 1
 C         4.849795         0.213689        -0.345694
 C         3.279080         0.359102        -0.297701
 C         2.318559         1.106728        -1.143056
 C         1.369634         0.456756        -0.087305
 C         2.236217        -0.838044        -0.318022
 O         2.403500        -1.707305         0.784422
 C         2.486308        -0.775060         1.850989
 C         2.529383         0.565375         1.038788
 O         2.579567         1.692721         1.917021
 H         5.353676        -0.039128        -1.279497
 H         5.246140         1.259652        -0.139884
 H         5.078130        -0.568784         0.409645
 H         2.542441         2.132716        -0.857376
 H         2.302114         0.861095        -2.218450
 H         0.320322         0.550320         0.160087
 H         2.288979        -1.432578        -1.229250
 H         1.582205        -0.875315         2.474211
 H         3.391864        -0.921541         2.485589
 H         2.438302         2.541462         1.569357
