19
Iteration:  3348charge 0 multiplicity 1
 C         4.771450         0.229934        -0.458564
 C         3.313987         0.310793        -0.217315
 C         2.285846         1.224830        -0.890965
 C         1.365257         0.319343        -0.069150
 C         2.297890        -0.904644        -0.345079
 O         2.402329        -1.732954         0.769983
 C         2.572774        -0.814925         1.895227
 C         2.464209         0.547708         1.112677
 O         2.646965         1.866561         1.697861
 H         4.879261        -0.358380        -1.347877
 H         5.349634         1.176579        -0.414887
 H         5.330038        -0.358846         0.207383
 H         2.305961         2.269758        -0.687849
 H         2.180977         1.218466        -2.000518
 H         0.348371         0.238558         0.191603
 H         2.134722        -1.398238        -1.370888
 H         1.660011        -1.004705         2.497117
 H         3.481227        -0.982028         2.445787
 H         1.793695         2.445811         1.644193
