19
Iteration:  2897
 C         4.787779         0.219368        -0.437635
 C         3.316880         0.271755        -0.224905
 C         2.317563         1.109523        -1.047366
 C         1.406546         0.313200        -0.037453
 C         2.328695        -0.882617        -0.315160
 O         2.327594        -1.662717         0.988123
 C         2.614060        -0.734296         2.025736
 C         2.474040         0.531097         1.088663
 O         2.471134         1.891534         1.475382
 H         5.197319         1.149070        -0.897034
 H         5.602012         0.045029         0.330545
 H         4.864374        -0.655744        -1.173220
 H         2.354453         2.265994        -0.873226
 H         2.211103         0.664572        -2.025519
 H         0.269963         0.423353         0.050300
 H         2.125515        -1.649873        -1.049090
 H         1.743035        -0.715092         2.687209
 H         3.602479        -0.969889         2.477191
 H         3.395765         2.191219         1.407290
