19
Iteration:  2680charge 0 multiplicity 1
 C         4.822998         0.088046        -0.445729
 C         3.334510         0.231950        -0.231076
 C         2.201912         1.022970        -1.046172
 C         1.389459         0.340840         0.008986
 C         2.351865        -0.960490        -0.241341
 O         2.496794        -1.704960         1.017854
 C         2.551239        -0.584696         1.957850
 C         2.408069         0.649105         1.004543
 O         2.482490         1.974547         1.412980
 H         5.105812        -0.938302        -0.627722
 H         5.228891         0.708877        -1.256017
 H         5.390614         0.403827         0.434938
 H         2.448248         2.138980        -1.082161
 H         2.091817         0.803074        -2.091645
 H         0.313751         0.490494         0.290672
 H         1.961239        -1.685184        -1.187718
 H         1.759520        -0.809798         2.691158
 H         3.416446        -0.601159         2.549031
 H         2.994227         2.070969         2.266578
