19
Iteration:  4230charge 0 multiplicity 1
 C         4.899685         0.274552        -0.377459
 C         3.333353         0.213486        -0.301542
 C         2.371585         1.167370        -0.941291
 C         1.391746         0.398063         0.020416
 C         2.259341        -0.870319        -0.330954
 O         2.341969        -1.678425         0.783005
 C         2.514126        -0.794355         1.842673
 C         2.479569         0.543002         1.123433
 O         2.493569         1.786863         1.694768
 H         5.198389         0.843906        -1.308886
 H         5.439044         0.689454         0.582282
 H         5.218732        -0.787516        -0.543457
 H         2.645163         2.239215        -0.804113
 H         2.023579         0.993178        -1.992817
 H         0.317626         0.421328         0.168111
 H         1.983119        -1.564959        -1.200182
 H         1.649757        -0.796208         2.505907
 H         3.399880        -1.132649         2.401208
 H         2.860675         2.517195         1.097770
