19
Iteration:  2498
 C         4.789398         0.093304        -0.481378
 C         3.343094         0.208598        -0.247771
 C         2.278420         0.868681        -1.269686
 C         1.426639         0.299712        -0.161299
 C         2.313109        -0.991868        -0.162035
 O         2.369233        -1.639928         1.063218
 C         2.589554        -0.433965         1.951592
 C         2.465045         0.688429         1.018719
 O         2.477351         1.925098         1.745301
 H         5.061534         0.836077        -1.297455
 H         5.235836         0.363350         0.507518
 H         5.312258        -0.917623        -0.542169
 H         2.486557         1.919646        -1.467087
 H         2.188703         0.564073        -2.333339
 H         0.261087         0.238300        -0.045544
 H         2.552325        -1.705947        -0.900786
 H         1.959870        -0.558194         2.836078
 H         3.633960        -0.396238         2.400909
 H         2.394523         2.644370         1.110739
