19
Iteration:  1273charge 0 multiplicity 1
 C         4.833006         0.088753        -0.430832
 C         3.323975         0.119400        -0.316328
 C         2.319525         0.819630        -1.223085
 C         1.373198         0.184332        -0.193664
 C         2.332987        -0.980109        -0.119357
 O         2.393713        -1.479178         1.185049
 C         2.619065        -0.415411         2.005948
 C         2.471187         0.698493         1.000998
 O         2.423542         1.960427         1.554062
 H         5.211990        -0.871578        -0.016362
 H         5.213183         0.176003        -1.501327
 H         5.246835         0.818105         0.371300
 H         2.097305         1.951196        -1.510125
 H         2.218733         0.383172        -2.215819
 H         0.407702        -0.104959         0.060960
 H         2.182932        -1.758590        -0.802016
 H         2.124790        -0.187570         2.931889
 H         3.673125        -0.526032         2.320836
 H         2.369081         2.590995         0.831194
