19
Iteration:  3349charge 0 multiplicity 1
 C         4.775435         0.231874        -0.466722
 C         3.310723         0.313722        -0.219419
 C         2.285160         1.228336        -0.894789
 C         1.363156         0.316681        -0.075551
 C         2.308083        -0.907112        -0.335679
 O         2.395935        -1.730801         0.774226
 C         2.575051        -0.807224         1.895671
 C         2.458428         0.541047         1.114361
 O         2.648759         1.863803         1.699109
 H         4.874906        -0.393091        -1.325216
 H         5.327202         1.165023        -0.414543
 H         5.352489        -0.364135         0.228947
 H         2.288514         2.267297        -0.686773
 H         2.201353         1.232435        -2.025453
 H         0.326704         0.276824         0.197478
 H         2.156541        -1.366447        -1.371848
 H         1.660231        -1.040602         2.473168
 H         3.502432        -0.988091         2.420408
 H         1.791438         2.416324         1.687493
