19
Iteration:  1352
 C         4.804846         0.214435        -0.344890
 C         3.325160         0.190652        -0.305809
 C         2.207718         0.886728        -1.199764
 C         1.474973         0.232432        -0.126096
 C         2.355419        -1.070681        -0.169040
 O         2.397337        -1.696464         1.238277
 C         2.492404        -0.421783         2.004580
 C         2.406749         0.673123         1.002348
 O         2.614790         1.956364         1.410251
 H         5.381016        -0.138866         0.556384
 H         5.061903        -0.444547        -1.230377
 H         5.194666         1.240810        -0.849522
 H         2.395941         2.099143        -0.991845
 H         2.065126         0.536380        -2.174872
 H         0.389162         0.268200        -0.013666
 H         2.336294        -1.840601        -0.958807
 H         1.583828        -0.293385         2.557931
 H         3.416775        -0.305310         2.626770
 H         2.278538         2.600605         0.746150
