19
Iteration:  4180
 C         4.807012         0.095633        -0.478857
 C         3.286925         0.361612        -0.178322
 C         2.342645         1.118194        -1.099831
 C         1.363234         0.355063        -0.174070
 C         2.395181        -0.806584        -0.383016
 O         2.435507        -1.691765         0.767705
 C         2.426930        -0.649723         1.924498
 C         2.343247         0.603398         1.135945
 O         2.583870         1.686314         1.949717
 H         5.087330         0.447438        -1.432495
 H         5.223829         0.937421         0.046163
 H         5.194331        -0.920438        -0.282369
 H         2.358998         2.203698        -0.898965
 H         2.545701         0.835518        -2.115687
 H         0.245247         0.455057        -0.079029
 H         2.422053        -1.335221        -1.323149
 H         1.690751        -0.854540         2.747057
 H         3.456322        -0.670263         2.331863
 H         2.980147         2.394799         1.551314
