19
Iteration:  2359charge 0 multiplicity 1
 C         4.825400         0.084314        -0.445527
 C         3.308249         0.275317        -0.230053
 C         2.325481         0.904607        -1.171685
 C         1.356536         0.312804        -0.072234
 C         2.373940        -0.979516        -0.116347
 O         2.438708        -1.714134         1.086363
 C         2.526740        -0.552820         2.049986
 C         2.430043         0.678675         0.961877
 O         2.492620         2.026503         1.478565
 H         5.451114         0.641405         0.274397
 H         5.125163        -0.967117        -0.476173
 H         5.151995         0.470800        -1.482885
 H         2.274095         1.983223        -1.285531
 H         2.301083         0.383545        -2.079739
 H         0.215717         0.263027        -0.021145
 H         2.147761        -1.713885        -0.910368
 H         1.804627        -0.585867         2.901267
 H         3.529522        -0.540908         2.473494
 H         2.441902         2.735191         0.835191
