19
Iteration:  4198charge 0 multiplicity 1
 C         4.847700         0.153830        -0.444807
 C         3.378525         0.323360        -0.254778
 C         2.314284         1.265717        -1.014221
 C         1.415674         0.330394        -0.144065
 C         2.320094        -0.905863        -0.332735
 O         2.394483        -1.665093         0.860893
 C         2.457699        -0.739852         1.844706
 C         2.479112         0.592608         1.063579
 O         2.494467         1.729388         1.885036
 H         5.132055         0.527202        -1.469650
 H         5.683073         0.675309         0.214532
 H         4.782834        -0.952896        -0.531949
 H         2.288041         2.356473        -0.782603
 H         2.083702         1.071786        -2.082312
 H         0.331963         0.239025        -0.159453
 H         2.194161        -1.573506        -1.190456
 H         1.524135        -0.698288         2.436133
 H         3.297229        -0.926613         2.552933
 H         3.003689         2.351823         1.446618
