19
Iteration:  2257charge 0 multiplicity 1
 C         4.852610         0.264397        -0.354351
 C         3.310016         0.190503        -0.346194
 C         2.230555         0.869377        -1.234588
 C         1.454344         0.255488        -0.152334
 C         2.302969        -1.046791        -0.110673
 O         2.263978        -1.666569         1.234617
 C         2.650835        -0.463835         1.996275
 C         2.470576         0.673214         0.931075
 O         2.548804         1.888273         1.483403
 H         5.413455        -0.308812         0.451819
 H         5.396526        -0.040633        -1.293386
 H         5.113446         1.337554        -0.177030
 H         2.319384         1.909288        -1.210642
 H         2.125037         0.535221        -2.314173
 H         0.342810         0.534515        -0.028259
 H         1.985661        -1.811697        -0.733380
 H         1.880455        -0.394061         2.805379
 H         3.650534        -0.505908         2.406980
 H         2.601735         2.627046         0.832112
