19
Iteration:  3116
 C         4.743206         0.250958        -0.432744
 C         3.331471         0.403799        -0.160528
 C         2.296071         1.147728        -1.005287
 C         1.382489         0.286188        -0.065486
 C         2.279545        -0.950834        -0.255165
 O         2.328304        -1.775489         0.873543
 C         2.582332        -0.736500         1.916707
 C         2.489330         0.498817         1.065281
 O         2.587364         1.888487         1.610517
 H         5.383828        -0.058085         0.433360
 H         4.819039        -0.368809        -1.388232
 H         5.062606         1.220948        -0.816585
 H         2.118825         2.316607        -0.827123
 H         2.411587         0.819353        -2.069056
 H         0.265259         0.321620        -0.105987
 H         2.316134        -1.420052        -1.259242
 H         1.848988        -0.757517         2.809017
 H         3.603632        -0.829820         2.392652
 H         3.361479         2.483382         1.309513
