19
Iteration:  2005charge 0 multiplicity 1
 C         4.837880         0.073235        -0.525883
 C         3.377303         0.121609        -0.257509
 C         2.329089         0.971442        -1.129501
 C         1.421510         0.274384        -0.178137
 C         2.329346        -0.963622        -0.148022
 O         2.363456        -1.612233         1.224131
 C         2.625257        -0.487705         2.061860
 C         2.391388         0.684273         0.991995
 O         2.452225         1.953520         1.459617
 H         5.272789        -0.295121         0.380422
 H         5.176830        -0.512135        -1.407665
 H         5.188191         1.041635        -0.691679
 H         2.267519         2.135844        -1.160512
 H         2.169033         0.728532        -2.134496
 H         0.335096         0.004428        -0.065545
 H         2.321033        -1.927097        -0.783087
 H         1.811695        -0.509674         2.822411
 H         3.591913        -0.501138         2.540791
 H         2.173845         2.638108         0.762851
