19
Iteration:  3718
 C         4.821144         0.169020        -0.394911
 C         3.338760         0.326321        -0.203753
 C         2.278657         1.152127        -1.173845
 C         1.373283         0.484381        -0.084705
 C         2.308288        -0.864852        -0.405354
 O         2.415856        -1.693957         0.818691
 C         2.490424        -0.772150         1.829159
 C         2.414148         0.560442         1.078058
 O         2.587755         1.716919         2.008118
 H         5.042791        -0.671556        -1.056440
 H         5.193769         1.084195        -0.966055
 H         5.460238         0.206287         0.451518
 H         2.346810         2.295350        -1.356274
 H         2.172585         0.661485        -2.158485
 H         0.308823         0.585583        -0.055618
 H         2.277620        -1.583297        -1.317334
 H         1.615884        -0.865336         2.475805
 H         3.345902        -0.772722         2.503868
 H         2.981195         2.368228         1.499233
