19
Iteration:  1555charge 0 multiplicity 1
 C         4.807479         0.211943        -0.381060
 C         3.339465         0.150943        -0.341928
 C         2.282169         0.909316        -1.211595
 C         1.389352         0.252106        -0.081913
 C         2.347223        -1.051677        -0.121295
 O         2.454998        -1.603078         1.212638
 C         2.452009        -0.479644         2.045663
 C         2.444465         0.647257         0.959095
 O         2.543452         1.957485         1.416716
 H         5.346665        -0.266178         0.474488
 H         5.102060        -0.403647        -1.306909
 H         5.253079         1.187759        -0.485097
 H         2.478946         1.977233        -1.243971
 H         2.106109         0.525468        -2.297312
 H         0.367191         0.292845         0.140563
 H         2.137063        -1.735613        -0.879164
 H         1.553166        -0.451272         2.756916
 H         3.298452        -0.738868         2.673186
 H         2.738447         2.605056         0.672624
