19
Iteration:  3690charge 0 multiplicity 1
 C         4.784912         0.185267        -0.445164
 C         3.359028         0.312850        -0.283421
 C         2.355266         1.257270        -0.955477
 C         1.407080         0.324643        -0.038141
 C         2.249283        -0.900723        -0.346310
 O         2.430289        -1.644434         0.854099
 C         2.453263        -0.691954         1.807860
 C         2.452164         0.523184         1.020556
 O         2.553750         1.672151         1.828342
 H         5.278414        -0.452449        -1.211549
 H         5.290593         1.090333        -0.761910
 H         5.309491        -0.112050         0.543735
 H         2.465075         2.285673        -0.647961
 H         2.229163         1.462961        -2.051328
 H         0.284611         0.319227        -0.183921
 H         2.002137        -1.607857        -1.098039
 H         1.490812        -0.693671         2.427872
 H         3.234337        -0.839279         2.586630
 H         3.039200         2.313143         1.334896
