19
Iteration:  1939charge 0 multiplicity 1
 C         4.767360         0.134936        -0.363958
 C         3.263742         0.127026        -0.360767
 C         2.261327         0.831612        -1.274162
 C         1.392705         0.267577        -0.082601
 C         2.324254        -1.020592        -0.115659
 O         2.537163        -1.562094         1.188709
 C         2.507300        -0.377277         1.986728
 C         2.468891         0.692059         0.894834
 O         2.566481         1.915574         1.576709
 H         4.972537        -0.850555        -0.031699
 H         5.288002         0.265797        -1.314676
 H         5.219320         0.772325         0.310907
 H         2.093557         1.948416        -1.500571
 H         2.067111         0.424516        -2.212633
 H         0.254763         0.084580        -0.041062
 H         2.213399        -1.779281        -0.983021
 H         1.535115        -0.433436         2.530730
 H         3.269503        -0.273147         2.727734
 H         2.710680         2.668393         1.035118
