19
Iteration:  1320
 C         4.789621         0.117023        -0.308867
 C         3.280528         0.137570        -0.318841
 C         2.231664         0.795922        -1.213444
 C         1.433325         0.223202        -0.106827
 C         2.253890        -1.009226        -0.207252
 O         2.558197        -1.552114         1.105712
 C         2.497338        -0.430328         2.065018
 C         2.428259         0.678959         1.052276
 O         2.605325         2.002891         1.422857
 H         5.301917        -0.501037         0.448774
 H         5.058062        -0.198948        -1.315647
 H         5.141331         1.183254        -0.108305
 H         2.384199         1.938686        -1.389328
 H         2.169513         0.397661        -2.192525
 H         0.437381         0.283326        -0.047513
 H         2.185732        -1.892565        -0.858000
 H         1.529540        -0.430595         2.604833
 H         3.240878        -0.421218         2.881210
 H         2.070463         2.619297         0.948443
