19
Iteration:    53
 C         4.822363         0.099600        -0.448357
 C         3.312268         0.144327        -0.222510
 C         2.300601         0.812786        -1.264643
 C         1.440565         0.250026        -0.136027
 C         2.320157        -1.048258        -0.137991
 O         2.396316        -1.556120         1.180442
 C         2.548979        -0.372465         2.041861
 C         2.441490         0.662744         0.997336
 O         2.458596         1.996235         1.525685
 H         5.416752        -0.335752         0.252055
 H         4.920653        -0.507716        -1.379740
 H         5.273936         1.079862        -0.800469
 H         2.424964         1.965457        -1.383764
 H         2.159898         0.318783        -2.172744
 H         0.338963         0.260316        -0.073503
 H         2.170900        -1.851435        -0.863596
 H         1.745064        -0.398030         2.801188
 H         3.626395        -0.377402         2.348785
 H         3.101373         2.568382         1.002914
