19
Iteration:  1210
 C         4.790716         0.167920        -0.397667
 C         3.358140         0.131373        -0.322141
 C         2.200487         0.849390        -1.183644
 C         1.400024         0.187637        -0.106839
 C         2.355447        -1.049305        -0.174261
 O         2.512225        -1.581691         1.172013
 C         2.373868        -0.362039         2.001939
 C         2.387588         0.664473         0.991964
 O         2.674641         1.977685         1.486768
 H         5.181036        -0.491419         0.338625
 H         5.177808        -0.103475        -1.358704
 H         5.237047         1.184755        -0.173410
 H         2.177868         1.980014        -1.322651
 H         1.999992         0.467307        -2.186705
 H         0.351038         0.056205         0.018856
 H         2.330517        -1.905992        -0.755420
 H         1.498842        -0.424478         2.734174
 H         3.295947        -0.454001         2.652665
 H         2.474541         2.629018         0.777346
