19
Iteration:  1903
 C         4.808869         0.216844        -0.373813
 C         3.286282         0.168677        -0.288373
 C         2.276035         0.896156        -1.178412
 C         1.375663         0.173026        -0.068436
 C         2.379239        -0.992389        -0.135192
 O         2.300818        -1.623625         1.193305
 C         2.641854        -0.515742         2.033853
 C         2.389419         0.651116         0.995628
 O         2.584007         2.029117         1.384159
 H         5.248556        -0.714191        -0.005425
 H         5.129527         0.320001        -1.433791
 H         5.192215         1.025582         0.253812
 H         2.199660         1.911869        -1.203602
 H         2.353506         0.421716        -2.185332
 H         0.434519         0.034240        -0.432597
 H         2.133074        -1.789066        -0.948787
 H         1.886424        -0.451993         2.811283
 H         3.673905        -0.551243         2.488709
 H         2.799036         2.482079         0.575182
