19
Iteration:   448charge 0 multiplicity 1
 C         4.754657         0.145069        -0.342086
 C         3.352115         0.192129        -0.287820
 C         2.275911         0.911777        -1.296768
 C         1.352684         0.229671        -0.097815
 C         2.290196        -0.988056        -0.117758
 O         2.468704        -1.584360         1.222251
 C         2.446900        -0.506467         2.073780
 C         2.511567         0.665336         0.969666
 O         2.609226         1.925690         1.380832
 H         5.309763        -0.137086         0.558981
 H         5.248902        -0.477953        -1.075623
 H         5.205625         1.210030        -0.633473
 H         2.392452         2.064136        -1.113162
 H         2.296694         0.584810        -2.338139
 H         0.301546         0.244558        -0.005378
 H         2.358306        -1.761083        -0.903888
 H         1.453232        -0.466679         2.536900
 H         3.204053        -0.638356         2.873083
 H         2.280017         2.468186         0.615107
