19
Iteration:  4381charge 0 multiplicity 1
 C         4.844978         0.187910        -0.502730
 C         3.365156         0.295958        -0.250570
 C         2.374702         1.078670        -1.111561
 C         1.442818         0.466188        -0.064730
 C         2.240503        -0.790041        -0.301546
 O         2.415102        -1.657142         0.768330
 C         2.551843        -0.742492         1.802571
 C         2.464166         0.603386         1.118028
 O         2.435766         1.666683         2.018476
 H         5.009764        -0.560361        -1.329885
 H         5.278892         1.103532        -0.657045
 H         5.235960        -0.226853         0.389709
 H         2.395226         2.153271        -1.101549
 H         2.284960         0.499723        -2.073139
 H         0.371913         0.593244        -0.094755
 H         2.035377        -1.267564        -1.356486
 H         1.707134        -0.770373         2.544051
 H         3.473538        -1.094315         2.323967
 H         2.285630         2.563183         1.476309
