19
Iteration:  4987
 C         4.793223         0.478664        -0.487036
 C         3.309952         0.249805        -0.227464
 C         2.307323         1.117029        -1.009129
 C         1.438903         0.348134        -0.018756
 C         2.320648        -0.887416        -0.341893
 O         2.230358        -1.708899         0.810276
 C         2.539648        -0.803232         1.930244
 C         2.524274         0.462176         1.071853
 O         2.601537         1.711410         1.749138
 H         5.168539        -0.098496        -1.353162
 H         4.987091         1.602700        -0.516011
 H         5.325109         0.233117         0.425017
 H         2.340083         2.160433        -0.676173
 H         2.211983         1.104947        -2.069237
 H         0.373887         0.574647         0.162914
 H         2.190790        -1.422859        -1.255177
 H         1.765039        -0.872023         2.711513
 H         3.563760        -1.063847         2.366639
 H         3.051409         2.488239         1.213213
