19
Iteration:  2530charge 0 multiplicity 1
 C         4.819190         0.123285        -0.382283
 C         3.333756         0.284856        -0.242205
 C         2.287228         0.914691        -1.249457
 C         1.425282         0.321081        -0.094058
 C         2.237190        -0.989589        -0.179170
 O         2.354957        -1.630335         1.043139
 C         2.634600        -0.500349         1.981220
 C         2.493215         0.631497         1.035129
 O         2.504985         1.895442         1.581601
 H         5.387199         0.632529        -1.234865
 H         5.365931         0.654723         0.492264
 H         5.210732        -0.954598        -0.396962
 H         2.385343         2.056394        -1.340421
 H         2.087533         0.318814        -2.127292
 H         0.276440         0.376468         0.168964
 H         2.245809        -1.715595        -1.034633
 H         1.923074        -0.674332         2.801629
 H         3.765664        -0.564299         2.169124
 H         1.926587         2.549649         1.054436
