19
Iteration:  4384
 C         4.834868         0.169405        -0.498433
 C         3.354641         0.323215        -0.226289
 C         2.365451         1.050600        -1.128044
 C         1.465769         0.473508        -0.059082
 C         2.226717        -0.803309        -0.331589
 O         2.427347        -1.666623         0.737850
 C         2.526386        -0.737551         1.841701
 C         2.447054         0.596934         1.116954
 O         2.456729         1.686318         2.010936
 H         5.134889        -0.453445        -1.292710
 H         5.311192         1.171294        -0.656722
 H         5.317779        -0.266392         0.411574
 H         2.387817         2.121634        -1.107704
 H         2.180024         0.496541        -2.038205
 H         0.392208         0.657797        -0.145420
 H         2.037031        -1.219140        -1.291319
 H         1.782185        -0.868656         2.631483
 H         3.508187        -1.001043         2.292077
 H         2.254009         2.512812         1.614730
