19
Iteration:  2290charge 0 multiplicity 1
 C         4.763865         0.153093        -0.403808
 C         3.311981         0.230629        -0.288860
 C         2.265874         0.741764        -1.250627
 C         1.400675         0.219596        -0.109276
 C         2.347896        -0.991226        -0.146697
 O         2.373790        -1.594355         1.091863
 C         2.582280        -0.464274         2.003192
 C         2.422372         0.721982         0.967185
 O         2.591406         1.972158         1.637406
 H         5.223527         0.302028         0.620723
 H         5.201048        -0.568649        -1.118754
 H         5.009113         1.117953        -0.921975
 H         2.441877         1.763135        -1.400396
 H         2.429677         0.087869        -2.253318
 H         0.231589         0.295295        -0.198707
 H         2.088416        -1.584119        -0.942276
 H         1.790704        -0.539941         2.776455
 H         3.463165        -0.595665         2.605503
 H         2.639296         2.685279         0.894322
