19
Iteration:  4811charge 0 multiplicity 1
 C         4.966442         0.379367        -0.395790
 C         3.322698         0.309219        -0.270934
 C         2.112883         1.127397        -1.152926
 C         1.435625         0.329332        -0.061141
 C         2.188176        -0.904475        -0.297415
 O         2.446571        -1.733353         0.822641
 C         2.376851        -0.724148         1.907244
 C         2.568689         0.510768         1.043451
 O         2.668676         1.730590         1.842595
 H         4.913648         1.195740        -1.098473
 H         5.236773         0.904554         0.606288
 H         5.391508        -0.598803        -0.760998
 H         2.135119         2.240469        -1.029034
 H         1.968841         0.696255        -2.109878
 H         0.296896         0.441472         0.185217
 H         1.944469        -1.546797        -1.178649
 H         1.402407        -0.819258         2.376690
 H         3.205519        -0.940540         2.590853
 H         3.114003         2.475066         1.479540
