19
Iteration:  1443charge 0 multiplicity 1
 C         4.816289         0.052248        -0.400768
 C         3.290276         0.218517        -0.226898
 C         2.245964         0.908922        -1.180579
 C         1.365810         0.208289        -0.110439
 C         2.367570        -1.015264        -0.119190
 O         2.523717        -1.586947         1.197088
 C         2.477814        -0.430337         1.985817
 C         2.431736         0.688070         0.950608
 O         2.554611         1.971283         1.402911
 H         5.174224        -0.738087         0.360838
 H         5.055152        -0.245020        -1.459240
 H         5.346008         1.021383        -0.090604
 H         2.099983         2.073245        -1.035729
 H         2.184137         0.617551        -2.309760
 H         0.393981         0.264396         0.161184
 H         2.510079        -1.805239        -0.966233
 H         1.528874        -0.410816         2.619931
 H         3.354221        -0.602183         2.647058
 H         2.261444         2.459264         0.667478
