19
Iteration:  4229
 C         4.901879         0.271063        -0.380347
 C         3.339732         0.206090        -0.307379
 C         2.373090         1.172804        -0.939468
 C         1.388804         0.399037         0.024642
 C         2.258730        -0.864057        -0.324476
 O         2.341620        -1.682277         0.781460
 C         2.511727        -0.792326         1.850313
 C         2.487868         0.541757         1.113169
 O         2.485084         1.784634         1.695961
 H         5.229130         0.857746        -1.306311
 H         5.418582         0.690932         0.555051
 H         5.178612        -0.776383        -0.537771
 H         2.634322         2.231200        -0.788293
 H         2.016052         0.997826        -2.000127
 H         0.323232         0.424404         0.215893
 H         2.024161        -1.570910        -1.247551
 H         1.637764        -0.796975         2.495072
 H         3.388851        -1.104483         2.425112
 H         2.877406         2.535505         1.086308
