19
Iteration:  3025
 C         4.819195         0.114269        -0.418756
 C         3.274075         0.316413        -0.238067
 C         2.255655         1.130869        -1.077533
 C         1.358404         0.266140        -0.076695
 C         2.327691        -0.922267        -0.304958
 O         2.346419        -1.671873         0.922830
 C         2.679428        -0.700292         1.915774
 C         2.435166         0.635902         1.020843
 O         2.601778         1.909637         1.658682
 H         5.177802        -0.810304        -0.856455
 H         5.176879         0.948360        -1.019653
 H         5.425107         0.185451         0.541034
 H         2.337392         2.288403        -0.796434
 H         2.289240         0.890134        -2.179581
 H         0.192924         0.109909         0.003459
 H         2.155648        -1.601998        -1.081170
 H         1.905664        -0.772274         2.778367
 H         3.726426        -0.828084         2.326277
 H         1.749712         2.042070         2.101293
