19
Iteration:  3052charge 0 multiplicity 1
 C         4.778740         0.214136        -0.425439
 C         3.277852         0.313039        -0.285173
 C         2.259505         0.974024        -1.182826
 C         1.402936         0.444160        -0.069252
 C         2.319603        -0.923746        -0.257136
 O         2.455152        -1.708345         0.891684
 C         2.534482        -0.644130         1.927339
 C         2.417882         0.649671         1.014149
 O         2.666208         1.791163         1.832818
 H         5.166558        -0.838780        -0.586108
 H         5.090689         0.773298        -1.358573
 H         5.356874         0.595351         0.415868
 H         2.152242         2.078772        -1.373560
 H         2.135467         0.373131        -2.096019
 H         0.359202         0.528213        -0.032565
 H         2.012322        -1.635378        -1.109131
 H         1.683494        -0.716782         2.646913
 H         3.545361        -0.677712         2.404883
 H         1.775952         2.213266         1.814767
