19
Iteration:  3191charge 0 multiplicity 1
 C         4.767045         0.127796        -0.513952
 C         3.262183         0.308554        -0.136034
 C         2.204331         1.097108        -1.042305
 C         1.389060         0.306671        -0.134658
 C         2.356362        -0.857457        -0.313106
 O         2.479255        -1.690551         0.832125
 C         2.554384        -0.713041         1.930403
 C         2.376517         0.632909         1.072603
 O         2.699588         1.848027         1.771842
 H         5.375620         0.660540         0.223002
 H         4.873595        -0.942061        -0.322751
 H         5.070479         0.549379        -1.453902
 H         2.069340         2.222758        -1.177913
 H         2.159103         0.749359        -2.056720
 H         0.215663         0.210604        -0.195323
 H         2.279606        -1.254880        -1.316807
 H         1.687489        -0.722514         2.586517
 H         3.563064        -0.634436         2.296127
 H         2.038374         2.154466         2.373910
