19
Iteration:  1786charge 0 multiplicity 1
 C         4.840425         0.108783        -0.422815
 C         3.311485         0.107301        -0.290755
 C         2.267765         0.918812        -1.121185
 C         1.453491         0.293324        -0.091836
 C         2.275938        -0.994234        -0.132053
 O         2.441947        -1.652803         1.182095
 C         2.557389        -0.431714         1.959704
 C         2.491246         0.676482         0.937886
 O         2.409446         1.945118         1.456629
 H         5.284488        -0.162275         0.550986
 H         5.142468        -0.704347        -1.198494
 H         5.260866         1.105438        -0.766420
 H         2.512967         2.089035        -0.991197
 H         2.165065         0.661754        -2.151801
 H         0.338333         0.476018         0.093014
 H         2.558021        -1.838061        -0.848412
 H         1.766310        -0.381190         2.770691
 H         3.536835        -0.438994         2.410027
 H         2.534599         2.712128         0.822098
