19
Iteration:  1296charge 0 multiplicity 1
 C         4.810122         0.095497        -0.356188
 C         3.289160         0.239867        -0.304250
 C         2.240582         0.798104        -1.266838
 C         1.362493         0.301202        -0.158775
 C         2.353856        -1.038063        -0.067429
 O         2.471429        -1.679506         1.203758
 C         2.588821        -0.394823         1.956750
 C         2.403336         0.750296         0.894210
 O         2.525425         1.951928         1.512502
 H         5.043189        -0.846530         0.179983
 H         5.166119        -0.070086        -1.410806
 H         5.412419         0.889011         0.252493
 H         2.363481         1.973102        -1.456163
 H         2.314157         0.394191        -2.224039
 H         0.408384         0.249107         0.219009
 H         2.410217        -1.795792        -0.752328
 H         1.822896        -0.222564         2.692568
 H         3.526786        -0.402233         2.510942
 H         2.103219         2.793310         1.133778
