19
Iteration:  4907
 C         4.859983         0.167909        -0.419274
 C         3.278294         0.368777        -0.259535
 C         2.251923         1.218393        -0.965428
 C         1.289456         0.328078        -0.069815
 C         2.269546        -0.893436        -0.342016
 O         2.494911        -1.693546         0.784324
 C         2.563435        -0.751243         1.843569
 C         2.498291         0.534893         1.072196
 O         2.591022         1.790321         1.798489
 H         5.215943        -0.158071        -1.388372
 H         5.388843         1.106869        -0.194730
 H         5.092419        -0.644948         0.323836
 H         2.232586         2.294413        -0.653369
 H         2.107738         0.953095        -2.024902
 H         0.176685         0.335538         0.115705
 H         2.156785        -1.575123        -1.227641
 H         1.681767        -0.916229         2.561259
 H         3.520482        -0.876682         2.380330
 H         2.029784         2.593854         1.438576
