19
Iteration:  2117
 C         4.869417         0.184699        -0.384540
 C         3.351243         0.165161        -0.307236
 C         2.289231         0.838715        -1.183572
 C         1.417138         0.262470         0.003875
 C         2.258713        -0.999333        -0.136451
 O         2.375864        -1.691336         1.154819
 C         2.529731        -0.468874         1.999040
 C         2.473156         0.679184         1.002559
 O         2.543774         1.991245         1.393703
 H         5.404588        -0.546271         0.236628
 H         5.101265        -0.078858        -1.382507
 H         5.231138         1.183272        -0.147428
 H         2.184516         2.087059        -1.242801
 H         2.197610         0.673358        -2.207836
 H         0.247402         0.198982         0.059953
 H         2.110006        -1.637369        -0.926077
 H         1.777280        -0.426939         2.859474
 H         3.537729        -0.387415         2.361066
 H         2.333673         2.532519         0.668054
