19
Iteration:  3853charge 0 multiplicity 1
 C         4.792085         0.211739        -0.464760
 C         3.308427         0.279555        -0.282901
 C         2.392510         1.172421        -1.060166
 C         1.345209         0.461200        -0.153918
 C         2.281725        -0.910428        -0.350490
 O         2.428916        -1.714813         0.854347
 C         2.525843        -0.711454         1.863050
 C         2.438516         0.565408         1.087894
 O         2.518485         1.680514         1.951586
 H         4.986033        -0.216632        -1.470679
 H         5.243799         1.234460        -0.558032
 H         5.059609        -0.513188         0.388922
 H         2.666276         2.254469        -0.939316
 H         2.454013         0.897418        -2.261993
 H         0.286061         0.915896        -0.244963
 H         2.354205        -1.553074        -1.226675
 H         1.697009        -0.763491         2.638406
 H         3.413107        -0.758277         2.537338
 H         2.767428         2.562838         1.559341
