19
Iteration:  3393charge 0 multiplicity 1
 C         4.825582         0.262066        -0.451230
 C         3.314401         0.302487        -0.342876
 C         2.301921         1.081502        -1.149377
 C         1.394864         0.393763        -0.016721
 C         2.205029        -0.886601        -0.314107
 O         2.360805        -1.688623         0.777918
 C         2.553563        -0.741372         1.847822
 C         2.532580         0.654365         1.033907
 O         2.515235         1.704757         1.948522
 H         5.370505        -0.524081        -0.958457
 H         5.160584         1.276326        -0.754151
 H         5.349574         0.300187         0.531486
 H         2.326965         2.151228        -1.058658
 H         2.311463         0.969940        -2.281526
 H         0.327973         0.611718         0.101990
 H         2.123170        -1.626696        -1.177624
 H         1.819812        -0.582668         2.662363
 H         3.528296        -0.851233         2.306117
 H         3.222104         1.561726         2.685505
