19
Iteration:  3176
 C         4.729012         0.112052        -0.417034
 C         3.286773         0.379895        -0.319904
 C         2.244438         1.095569        -1.178942
 C         1.323295         0.315940        -0.088369
 C         2.293830        -0.873831        -0.298360
 O         2.470911        -1.677524         0.872355
 C         2.593840        -0.645858         1.891138
 C         2.502477         0.619858         1.085336
 O         2.608365         1.846109         1.822479
 H         5.358526         0.460737         0.414418
 H         5.037281        -0.920714        -0.617770
 H         5.084764         0.639127        -1.379796
 H         2.292288         2.131966        -1.065331
 H         2.206982         0.748750        -2.249229
 H         0.202043         0.310651         0.046501
 H         2.325144        -1.584564        -1.130246
 H         1.823310        -0.893592         2.651508
 H         3.569971        -0.845025         2.429963
 H         2.252441         1.564990         2.666913
