19
Iteration:  1793
 C         4.809283         0.093398        -0.449804
 C         3.361268         0.086880        -0.310429
 C         2.268168         0.946802        -1.163522
 C         1.405466         0.281406        -0.081103
 C         2.338228        -1.021309        -0.130017
 O         2.477747        -1.593799         1.163023
 C         2.511487        -0.449488         1.990418
 C         2.522697         0.634670         0.955897
 O         2.406389         1.975562         1.514407
 H         5.060026        -0.092244         0.593820
 H         5.214764        -0.668713        -1.058515
 H         5.231732         0.989743        -0.719750
 H         2.586796         2.027633        -1.177637
 H         1.855146         0.640535        -2.147343
 H         0.393085         0.437176        -0.056690
 H         2.224002        -1.812182        -0.899862
 H         1.664907        -0.337811         2.618334
 H         3.472030        -0.384022         2.541322
 H         2.652989         2.567362         0.710169
