19
Iteration:   542
 C         4.811692         0.064583        -0.367685
 C         3.355900         0.183087        -0.322082
 C         2.272949         0.884374        -1.233321
 C         1.429917         0.287547        -0.124870
 C         2.328940        -1.116690        -0.161761
 O         2.427043        -1.655271         1.205595
 C         2.611270        -0.427555         1.986690
 C         2.413786         0.731352         0.961762
 O         2.449656         2.060024         1.533214
 H         5.056764        -0.823593         0.200878
 H         5.338244        -0.009745        -1.353186
 H         5.212091         0.918697         0.151705
 H         2.107647         1.962074        -1.312057
 H         2.095989         0.468955        -2.339997
 H         0.257935         0.198763        -0.182139
 H         2.294545        -1.963533        -0.854395
 H         1.853821        -0.335193         2.812868
 H         3.619880        -0.390737         2.455467
 H         2.542977         2.567677         0.716796
