19
Iteration:  1980charge 0 multiplicity 1
 C         4.778318         0.070034        -0.463684
 C         3.344907         0.260018        -0.198379
 C         2.309124         0.845072        -1.189099
 C         1.404236         0.218113        -0.111709
 C         2.279036        -0.994064        -0.128486
 O         2.492987        -1.634015         1.122058
 C         2.490938        -0.407387         2.003081
 C         2.491117         0.710716         0.942598
 O         2.502867         1.983299         1.525107
 H         5.114490        -0.719298         0.243110
 H         4.913368        -0.307309        -1.555358
 H         5.439179         0.977938        -0.339341
 H         2.519406         1.877967        -1.278451
 H         2.180176         0.354371        -2.241998
 H         0.410449         0.222107         0.229019
 H         2.381554        -1.877744        -0.891266
 H         1.625761        -0.341874         2.686665
 H         3.466858        -0.482616         2.562928
 H         1.947953         2.628698         0.957978
