19
Iteration:  1603charge 0 multiplicity 1
 C         4.749721         0.071874        -0.418659
 C         3.311860         0.272491        -0.298247
 C         2.269710         0.852964        -1.282388
 C         1.381497         0.294579        -0.146678
 C         2.416742        -0.978780        -0.097887
 O         2.437404        -1.606764         1.155275
 C         2.524639        -0.432816         2.053258
 C         2.426391         0.656648         1.025953
 O         2.573312         1.938568         1.514330
 H         5.082186        -0.171580         0.549527
 H         5.078385        -0.655644        -1.088469
 H         5.309307         0.991127        -0.624787
 H         2.374361         1.938273        -1.483412
 H         2.164780         0.255711        -2.338855
 H         0.216626         0.112735        -0.255391
 H         2.621765        -1.761004        -0.905614
 H         1.680022        -0.646532         2.711805
 H         3.446700        -0.307195         2.691033
 H         1.993130         2.443204         0.987274
