19
Iteration:  2090charge 0 multiplicity 1
 C         4.719440         0.218641        -0.317115
 C         3.270071         0.141295        -0.350811
 C         2.235780         0.862402        -1.248283
 C         1.308515         0.252935        -0.096170
 C         2.350140        -1.046968        -0.137166
 O         2.481487        -1.595226         1.146739
 C         2.477495        -0.403669         2.009212
 C         2.502643         0.673684         0.963266
 O         2.707456         1.892579         1.507098
 H         5.208938        -0.187494         0.602646
 H         5.121889        -0.534220        -1.160457
 H         5.085535         1.271174        -0.461404
 H         2.185657         1.918525        -1.145832
 H         2.226036         0.590271        -2.405392
 H         0.218869         0.232441        -0.027337
 H         2.398065        -1.927463        -0.941095
 H         1.470597        -0.286878         2.486537
 H         3.297122        -0.429503         2.802455
 H         2.505018         2.559559         0.891275
