19
Iteration:    54
 C         4.826356         0.096179        -0.452988
 C         3.305146         0.149603        -0.223619
 C         2.295250         0.810895        -1.269366
 C         1.438190         0.246466        -0.141242
 C         2.313156        -1.041217        -0.141279
 O         2.400052        -1.555224         1.183833
 C         2.555893        -0.373881         2.047399
 C         2.438406         0.661429         0.999904
 O         2.462388         1.999476         1.523849
 H         5.420377        -0.329342         0.249286
 H         4.956061        -0.507333        -1.369968
 H         5.266050         1.065340        -0.778269
 H         2.397576         1.942210        -1.379122
 H         2.208015         0.333051        -2.170259
 H         0.342549         0.265483        -0.108508
 H         2.182903        -1.844702        -0.858569
 H         1.755961        -0.421003         2.779108
 H         3.592092        -0.406530         2.425472
 H         3.104961         2.551090         1.046656
