19
Iteration:  2120
 C         4.878834         0.177441        -0.391886
 C         3.344620         0.153124        -0.280319
 C         2.312979         0.818884        -1.160616
 C         1.397621         0.285892         0.003523
 C         2.267970        -1.004295        -0.117445
 O         2.350871        -1.688165         1.127135
 C         2.579366        -0.454414         1.986742
 C         2.439716         0.666839         0.998201
 O         2.526567         2.005288         1.401056
 H         5.388964        -0.595657         0.159736
 H         5.023234        -0.003820        -1.428076
 H         5.296485         1.182102        -0.134616
 H         2.153709         1.955669        -1.200602
 H         2.292054         0.710894        -2.287496
 H         0.358076         0.138900         0.155008
 H         2.159608        -1.656499        -0.991884
 H         1.826666        -0.342983         2.735010
 H         3.600397        -0.412086         2.458379
 H         2.308863         2.569663         0.605211
