19
Iteration:   952charge 0 multiplicity 1
 C         4.836253         0.101031        -0.468357
 C         3.274726         0.220784        -0.266273
 C         2.233204         0.772553        -1.239108
 C         1.369500         0.279471        -0.184651
 C         2.327128        -1.027108        -0.122308
 O         2.580195        -1.586377         1.171994
 C         2.388105        -0.389432         2.013339
 C         2.443311         0.687233         0.936508
 O         2.604838         1.950561         1.609850
 H         5.259965        -0.421181         0.420001
 H         5.031428        -0.387786        -1.390454
 H         5.274486         1.060773        -0.377412
 H         2.242075         1.845541        -1.306625
 H         2.053098         0.255709        -2.202549
 H         0.318939         0.327511        -0.023902
 H         2.324349        -1.766988        -0.959655
 H         1.461313        -0.428808         2.606385
 H         3.266673        -0.373877         2.691659
 H         2.450453         2.675610         0.984541
