19
Iteration:  4139charge 0 multiplicity 1
 C         4.882220         0.260668        -0.272322
 C         3.381108         0.190473        -0.346733
 C         2.265476         1.258671        -1.030690
 C         1.449880         0.373197        -0.007818
 C         2.259720        -0.867306        -0.401470
 O         2.321756        -1.709509         0.768931
 C         2.495545        -0.694950         1.860206
 C         2.526493         0.539023         1.028353
 O         2.596983         1.689316         1.850043
 H         5.387407        -0.239454        -1.152221
 H         5.178863         1.304684        -0.233567
 H         5.287932        -0.169444         0.627674
 H         2.182605         2.332065        -0.982502
 H         1.948942         0.966655        -2.085030
 H         0.343164         0.427681         0.088972
 H         1.830221        -1.424510        -1.310232
 H         1.623964        -0.655947         2.518396
 H         3.365023        -1.007970         2.404461
 H         2.135614         2.406005         1.240304
