19
Iteration:  2650
 C         4.756855         0.173915        -0.518602
 C         3.365272         0.243952        -0.242503
 C         2.301867         1.007869        -1.098277
 C         1.418830         0.259401        -0.127552
 C         2.342090        -0.964004        -0.210744
 O         2.302194        -1.638952         1.094044
 C         2.650569        -0.607039         1.981735
 C         2.504725         0.658623         1.016475
 O         2.404064         1.922199         1.528889
 H         5.236715        -0.777152        -0.851330
 H         5.124440         0.932095        -1.235836
 H         5.331111         0.177624         0.430337
 H         2.582430         2.138622        -0.858092
 H         2.316063         0.719774        -2.127156
 H         0.273369         0.142529         0.056744
 H         2.024193        -1.637233        -1.094692
 H         1.874199        -0.637170         2.802485
 H         3.715802        -0.739724         2.470423
 H         3.227719         2.224431         1.805985
