19
Iteration:  3874charge 0 multiplicity 1
 C         4.822643         0.177419        -0.469445
 C         3.395034         0.258764        -0.162101
 C         2.370878         1.217038        -1.036014
 C         1.454815         0.368660        -0.081981
 C         2.327703        -0.834083        -0.346249
 O         2.345283        -1.716918         0.811471
 C         2.512036        -0.774411         1.887564
 C         2.366550         0.588037         1.101452
 O         2.503162         1.754283         1.803314
 H         4.903720         0.229904        -1.547778
 H         5.229653         1.172366        -0.155377
 H         5.294835        -0.765977        -0.059761
 H         2.246361         2.303835        -0.802735
 H         2.330720         1.153014        -2.208844
 H         0.322439         0.192649         0.055106
 H         1.974575        -1.308234        -1.231852
 H         1.799780        -0.869776         2.731249
 H         3.490121        -0.899561         2.360557
 H         2.935821         2.513238         1.283115
