19
Iteration:  1672
 C         4.832313         0.152211        -0.400785
 C         3.306790         0.189399        -0.254103
 C         2.265949         0.887982        -1.138146
 C         1.364152         0.114528        -0.164326
 C         2.357010        -1.002405        -0.116142
 O         2.400358        -1.622036         1.139790
 C         2.522934        -0.451216         2.033364
 C         2.420086         0.694787         1.018999
 O         2.560894         2.017056         1.417580
 H         5.254462        -0.762450         0.066937
 H         5.081994         0.066811        -1.437445
 H         5.369003         0.992197         0.013305
 H         2.210467         2.075298        -1.152526
 H         2.316497         0.521310        -2.182481
 H         0.323746         0.221798        -0.022742
 H         2.337968        -1.695433        -0.914993
 H         1.728737        -0.347263         2.733148
 H         3.457757        -0.570750         2.597668
 H         2.806741         2.501508         0.613715
