19
Iteration:  1467charge 0 multiplicity 1
 C         4.813212         0.074356        -0.360495
 C         3.283621         0.166348        -0.342103
 C         2.264319         0.907965        -1.170577
 C         1.425222         0.211883        -0.094359
 C         2.325051        -1.046315        -0.147329
 O         2.530050        -1.649378         1.144561
 C         2.458896        -0.412948         2.080717
 C         2.435073         0.718287         1.015630
 O         2.560714         2.057231         1.401499
 H         5.226909        -0.819191         0.142943
 H         5.138184         0.162842        -1.420679
 H         5.144504         0.959769         0.095730
 H         2.329871         2.020338        -1.242607
 H         2.183763         0.347338        -2.251809
 H         0.373594         0.179769        -0.001102
 H         2.096943        -1.760775        -0.922869
 H         1.604640        -0.643383         2.808401
 H         3.416886        -0.544000         2.614930
 H         2.076995         2.487983         0.639946
