19
Iteration:  2883charge 0 multiplicity 1
 C         4.865728         0.127018        -0.448125
 C         3.300980         0.253142        -0.201576
 C         2.287972         1.146953        -0.996204
 C         1.357632         0.246749        -0.060702
 C         2.286273        -0.949848        -0.256206
 O         2.352367        -1.654269         0.942357
 C         2.612347        -0.665834         1.973692
 C         2.442658         0.593383         1.093097
 O         2.479343         1.937663         1.482912
 H         5.220920         1.164816        -0.571825
 H         5.258818        -0.474982         0.353996
 H         5.067699        -0.323621        -1.457062
 H         2.327430         2.238335        -1.022031
 H         2.299107         0.958542        -2.101232
 H         0.263790         0.111393        -0.048069
 H         2.382544        -1.479324        -1.112857
 H         2.100470        -0.939115         2.876228
 H         3.634378        -0.638673         2.296940
 H         3.383317         2.176154         1.706510
