19
Iteration:   556charge 0 multiplicity 1
 C         4.826056         0.041598        -0.327012
 C         3.273029         0.182379        -0.302790
 C         2.292241         0.898382        -1.209276
 C         1.350209         0.163502        -0.099412
 C         2.311470        -0.915979        -0.152405
 O         2.506695        -1.570316         1.178535
 C         2.553535        -0.424708         2.031569
 C         2.461602         0.646330         0.951348
 O         2.489770         1.953467         1.405284
 H         5.152183        -0.841064         0.195034
 H         5.134258         0.026989        -1.357929
 H         5.343478         0.942918         0.189532
 H         2.408287         2.065366        -1.116875
 H         2.284454         0.487074        -2.236470
 H         0.306729         0.157502         0.140902
 H         2.118668        -1.579697        -0.926625
 H         1.696766        -0.420424         2.718587
 H         3.501630        -0.406441         2.603525
 H         2.394988         2.685095         0.719865
