19
Iteration:  3001
 C         4.817970         0.179864        -0.412037
 C         3.278956         0.269985        -0.299059
 C         2.259769         1.207040        -0.993873
 C         1.446339         0.334372         0.005645
 C         2.229909        -0.942873        -0.313925
 O         2.397119        -1.696314         0.978307
 C         2.617192        -0.652298         1.922576
 C         2.529194         0.548156         1.014723
 O         2.509924         1.817910         1.456325
 H         5.244083        -0.585292        -1.028302
 H         5.321813         1.098916        -0.542788
 H         5.164081        -0.142126         0.571481
 H         2.566684         2.135687        -0.654758
 H         2.037537         1.182540        -2.066767
 H         0.372116         0.468071         0.181166
 H         2.141221        -1.644937        -1.153125
 H         1.847613        -0.637910         2.680406
 H         3.591265        -0.665880         2.490947
 H         2.149527         1.856698         2.437731
