19
Iteration:  1685charge 0 multiplicity 1
 C         4.778834         0.171063        -0.403246
 C         3.324348         0.274935        -0.172473
 C         2.272317         0.813796        -1.133712
 C         1.339274         0.221792        -0.067265
 C         2.386229        -1.061760        -0.174031
 O         2.453969        -1.672684         1.177955
 C         2.416032        -0.426938         1.972331
 C         2.415556         0.664404         0.903706
 O         2.651090         2.017160         1.423407
 H         5.067730        -0.812647         0.096594
 H         5.089547         0.166968        -1.527699
 H         5.256850         0.988533         0.121755
 H         2.129361         2.007022        -1.074104
 H         2.214534         0.533640        -2.076984
 H         0.345837         0.043494        -0.154787
 H         2.427602        -1.790193        -0.989176
 H         1.588359        -0.582166         2.682366
 H         3.322985        -0.243075         2.518525
 H         2.790137         2.635711         0.657927
