19
Iteration:  3000charge 0 multiplicity 1
 C         4.818574         0.176796        -0.412060
 C         3.281171         0.266119        -0.308649
 C         2.267888         1.207000        -0.995333
 C         1.432633         0.338076         0.012282
 C         2.234541        -0.939303        -0.314961
 O         2.401174        -1.689237         0.978447
 C         2.616572        -0.654373         1.930439
 C         2.519604         0.542943         1.008570
 O         2.511110         1.825022         1.458056
 H         5.272596        -0.572257        -1.039988
 H         5.305185         1.121076        -0.493234
 H         5.182363        -0.139586         0.547175
 H         2.543283         2.122465        -0.695864
 H         2.056230         1.186361        -2.047476
 H         0.392551         0.423444         0.199070
 H         2.096697        -1.674177        -1.164639
 H         1.864373        -0.657446         2.661937
 H         3.559844        -0.725333         2.529151
 H         2.179060         1.839259         2.434998
