19
Iteration:  4672
 C         4.793628         0.264174        -0.464834
 C         3.283928         0.324938        -0.256488
 C         2.276563         1.346024        -0.921451
 C         1.393482         0.277846        -0.189932
 C         2.344139        -0.847429        -0.294781
 O         2.388449        -1.760723         0.833120
 C         2.471383        -0.764523         1.912970
 C         2.509496         0.506717         1.067738
 O         2.675315         1.725882         1.703581
 H         5.060672        -0.296626        -1.387414
 H         5.198895         1.277859        -0.592977
 H         5.214925        -0.286592         0.350438
 H         2.147862         2.343964        -0.388548
 H         2.118894         1.500619        -2.043935
 H         0.302579         0.145956        -0.038390
 H         2.435967        -1.588788        -1.146587
 H         1.554586        -0.564065         2.546785
 H         3.357314        -0.893877         2.625313
 H         1.828137         1.962238         2.215122
