19
Iteration:  4266charge 0 multiplicity 1
 C         4.727970         0.300049        -0.254955
 C         3.253258         0.385351        -0.264730
 C         2.264810         1.141902        -1.123115
 C         1.307930         0.322937        -0.167716
 C         2.361697        -0.933580        -0.342055
 O         2.300889        -1.670755         0.861520
 C         2.556773        -0.706103         1.812468
 C         2.457401         0.616830         0.997960
 O         2.775361         1.630629         1.889102
 H         5.235611         0.626429        -1.168176
 H         5.314800         0.907233         0.589947
 H         5.114713        -0.785436        -0.120306
 H         2.600878         2.214280        -0.945290
 H         2.225326         0.900917        -2.172934
 H         0.183975         0.291206        -0.264187
 H         2.304520        -1.563270        -1.168636
 H         1.759293        -0.645456         2.591596
 H         3.540457        -0.982497         2.276548
 H         2.443432         2.487126         1.453590
