19
Iteration:  3498
 C         4.803663         0.224450        -0.344620
 C         3.323985         0.286733        -0.215985
 C         2.308220         1.078640        -1.176847
 C         1.391572         0.377538        -0.046030
 C         2.256642        -0.867431        -0.340975
 O         2.345847        -1.703075         0.714783
 C         2.535152        -0.778628         1.877969
 C         2.471330         0.618875         1.086049
 O         2.586178         1.874452         1.840809
 H         5.114267         0.307301        -1.415982
 H         5.362231         1.131968         0.058810
 H         5.108474        -0.732990         0.039328
 H         2.330868         2.183325        -1.221929
 H         2.197937         0.556877        -2.083647
 H         0.368111         0.578710         0.256198
 H         2.393799        -1.472052        -1.320667
 H         1.764870        -0.957234         2.657748
 H         3.600582        -0.835838         2.285903
 H         2.855988         1.563977         2.746953
