19
Iteration:  2163
 C         4.872042         0.055152        -0.486084
 C         3.337748         0.198348        -0.290271
 C         2.280613         0.898148        -1.290662
 C         1.364574         0.201378        -0.156906
 C         2.368203        -1.013452        -0.092444
 O         2.404352        -1.594901         1.224150
 C         2.615077        -0.347254         2.028353
 C         2.375010         0.699593         0.901062
 O         2.462115         1.905534         1.606622
 H         5.140640        -0.961999        -0.268346
 H         5.265150         0.263407        -1.420720
 H         5.412816         0.610900         0.303445
 H         2.448529         2.087519        -1.431523
 H         2.154313         0.539542        -2.328264
 H         0.311314         0.368543         0.007218
 H         2.091101        -1.766938        -0.816532
 H         1.770745        -0.354923         2.685831
 H         3.577075        -0.387385         2.554433
 H         2.503945         2.673270         1.048324
