19
Iteration:  2661
 C         4.871039         0.130080        -0.507912
 C         3.292390         0.208450        -0.229914
 C         2.314962         1.055728        -1.069444
 C         1.404717         0.231013        -0.086850
 C         2.282135        -0.957990        -0.173044
 O         2.362743        -1.696892         1.019199
 C         2.610124        -0.620165         1.992145
 C         2.483541         0.615799         1.076107
 O         2.418167         2.045917         1.466811
 H         5.012454        -0.892217        -0.925017
 H         5.154365         0.914106        -1.238569
 H         5.421616         0.446583         0.387401
 H         2.347895         2.238455        -0.984726
 H         2.168697         0.847715        -2.114083
 H         0.253236         0.197204        -0.146966
 H         2.312822        -1.727090        -1.019625
 H         1.928857        -0.620252         2.883755
 H         3.701493        -0.818810         2.328286
 H         3.188392         2.222369         2.012015
