19
Iteration:  1834
 C         4.760977         0.072613        -0.396633
 C         3.234104         0.283027        -0.257284
 C         2.250802         0.775712        -1.229644
 C         1.332725         0.309676        -0.189198
 C         2.503043        -1.049355        -0.154316
 O         2.483092        -1.601264         1.143028
 C         2.481100        -0.388887         1.968418
 C         2.415833         0.717687         0.994807
 O         2.636675         1.942031         1.607699
 H         5.418626        -0.272430         0.482181
 H         4.903500        -0.538136        -1.283768
 H         5.177925         1.122912        -0.733831
 H         2.267307         1.760473        -1.421585
 H         2.130018         0.114680        -2.217551
 H         0.228102         0.194257        -0.132102
 H         2.291684        -1.776155        -0.853755
 H         1.467742        -0.425540         2.449327
 H         3.278769        -0.547208         2.772413
 H         2.287731         2.620430         1.076222
