19
Iteration:  1839charge 0 multiplicity 1
 C         4.731190         0.121540        -0.380775
 C         3.268394         0.207266        -0.297098
 C         2.251262         0.775303        -1.281462
 C         1.357673         0.307721        -0.138769
 C         2.484493        -1.048432        -0.150788
 O         2.463394        -1.599847         1.138982
 C         2.500960        -0.401458         2.012269
 C         2.396563         0.733887         0.999384
 O         2.638942         1.930562         1.600989
 H         5.271818        -0.276073         0.420250
 H         4.857996        -0.414667        -1.349689
 H         5.105496         1.040913        -0.661278
 H         2.289649         1.967408        -1.489737
 H         2.376249         0.218371        -2.153747
 H         0.270919         0.240277        -0.156354
 H         2.380452        -1.931906        -0.926461
 H         1.517882        -0.352446         2.459522
 H         3.270453        -0.511701         2.732443
 H         2.244753         2.726347         1.116222
