19
Iteration:  1399charge 0 multiplicity 1
 C         4.804696         0.166637        -0.429222
 C         3.348652         0.172585        -0.282025
 C         2.282154         0.810119        -1.338387
 C         1.412843         0.285923        -0.107961
 C         2.362655        -1.024547        -0.056061
 O         2.364708        -1.654991         1.170960
 C         2.565825        -0.437568         2.014012
 C         2.460448         0.673884         0.896718
 O         2.460331         1.988438         1.615304
 H         5.327701        -0.093194         0.532677
 H         5.110142        -0.475482        -1.276495
 H         5.061905         1.197649        -0.721344
 H         2.373177         1.937462        -1.590724
 H         2.242930         0.081826        -2.233606
 H         0.440578         0.493091        -0.145844
 H         2.211606        -2.000642        -0.722715
 H         1.891419        -0.432896         2.904905
 H         3.609100        -0.135597         2.210202
 H         2.778607         2.672380         1.082057
