19
Iteration:  4484charge 0 multiplicity 1
 C         4.808663         0.275937        -0.332372
 C         3.332499         0.307908        -0.266889
 C         2.342598         1.047401        -1.136822
 C         1.358722         0.371144        -0.090947
 C         2.253960        -0.816480        -0.336376
 O         2.300956        -1.692026         0.840368
 C         2.559464        -0.717745         1.783144
 C         2.493779         0.596987         1.062889
 O         2.651189         1.694857         1.889831
 H         5.152625         0.888528        -1.094873
 H         5.219686         0.872957         0.523812
 H         5.350933        -0.666135        -0.408240
 H         2.587597         2.138346        -1.194742
 H         2.134530         0.778429        -2.172527
 H         0.234271         0.333815        -0.018935
 H         2.228430        -1.371239        -1.230210
 H         1.722193        -0.893100         2.474304
 H         3.518927        -0.886290         2.316819
 H         1.924084         2.314935         1.905773
