19
Iteration:  2420
 C         4.840811         0.234333        -0.315877
 C         3.352180         0.217386        -0.281351
 C         2.244485         0.916510        -1.245746
 C         1.322921         0.264980        -0.134783
 C         2.254604        -1.042122        -0.220753
 O         2.401176        -1.636336         1.123602
 C         2.542812        -0.499467         2.029275
 C         2.480235         0.653470         0.953879
 O         2.640499         1.899024         1.557564
 H         5.223562         1.263687        -0.534651
 H         5.290906        -0.061750         0.635342
 H         5.084635        -0.338226        -1.200409
 H         2.150506         1.989222        -1.406469
 H         2.197201         0.348826        -2.181283
 H         0.220276         0.419712        -0.055072
 H         2.007877        -1.878153        -0.842596
 H         1.745050        -0.450725         2.776992
 H         3.527633        -0.636850         2.584108
 H         2.534755         2.543592         0.887908
