19
Iteration:  2711charge 0 multiplicity 1
 C         4.788922         0.108368        -0.360388
 C         3.263289         0.270702        -0.319604
 C         2.150957         0.991505        -1.227806
 C         1.362525         0.259896        -0.119360
 C         2.297215        -1.021438        -0.280494
 O         2.558761        -1.624736         1.050216
 C         2.531767        -0.493683         1.958098
 C         2.461116         0.670722         0.965994
 O         2.599922         1.916103         1.671144
 H         4.922341        -0.951425        -0.214783
 H         5.248733         0.455791        -1.298848
 H         5.142248         0.771165         0.445547
 H         2.234716         2.093592        -1.122439
 H         2.159532         0.629241        -2.297724
 H         0.344834         0.487387         0.168501
 H         1.936197        -1.803116        -1.068365
 H         1.586332        -0.593748         2.507942
 H         3.413755        -0.550240         2.628340
 H         3.308193         1.717096         2.281994
