19
Iteration:  2139
 C         4.786034         0.122086        -0.467139
 C         3.329138         0.178816        -0.216234
 C         2.329975         0.875529        -1.148418
 C         1.398711         0.178020        -0.135022
 C         2.320349        -1.030911        -0.161227
 O         2.327821        -1.567849         1.178282
 C         2.631743        -0.479447         2.022964
 C         2.512995         0.694036         1.004546
 O         2.446685         2.002978         1.468123
 H         5.257170        -0.807875        -0.121515
 H         5.018022         0.221880        -1.489906
 H         5.259619         0.920089         0.117682
 H         2.649711         1.971942        -1.473346
 H         2.221718         0.414584        -2.081243
 H         0.283213         0.418808        -0.156112
 H         2.280080        -1.775603        -0.870051
 H         2.014871        -0.552406         2.968523
 H         3.689364        -0.558687         2.244118
 H         2.321466         2.675531         0.709204
