19
Iteration:  1916
 C         4.829691         0.193371        -0.357355
 C         3.294245         0.217175        -0.183941
 C         2.268741         0.840664        -1.211706
 C         1.313854         0.167837        -0.227185
 C         2.251274        -1.065150        -0.126548
 O         2.423761        -1.612695         1.153920
 C         2.564948        -0.437657         2.040516
 C         2.432877         0.687025         0.991797
 O         2.604592         2.000034         1.443692
 H         5.179053        -0.771541        -0.117514
 H         5.082600         0.352644        -1.418850
 H         5.374960         0.879939         0.189635
 H         2.216351         1.952727        -1.276823
 H         2.168774         0.533818        -2.204651
 H         0.288284         0.216113         0.121999
 H         2.454721        -1.857754        -0.946160
 H         1.952984        -0.557359         2.928956
 H         3.599111        -0.407675         2.365775
 H         2.859124         2.569781         0.668384
