19
Iteration:  2344
 C         4.793881         0.063955        -0.463706
 C         3.332125         0.137102        -0.264139
 C         2.253899         0.955311        -1.130573
 C         1.438787         0.219415        -0.048999
 C         2.353104        -1.014655        -0.232202
 O         2.493792        -1.603506         1.132534
 C         2.480767        -0.484742         1.993338
 C         2.443136         0.669140         1.073475
 O         2.502413         2.030566         1.488047
 H         5.273679         0.491931         0.446795
 H         5.142739        -0.975624        -0.569664
 H         5.056565         0.644291        -1.339681
 H         2.413867         2.042603        -1.099606
 H         2.131728         0.749891        -2.328320
 H         0.362029         0.367504         0.132598
 H         2.434875        -1.677647        -1.034912
 H         1.509067        -0.533214         2.441488
 H         3.263395        -0.551419         2.734710
 H         2.429261         2.409897         0.543463
