19
Iteration:  4214
 C         4.859620         0.163468        -0.457056
 C         3.360566         0.319890        -0.286767
 C         2.291081         1.252293        -0.976932
 C         1.494330         0.379560        -0.002011
 C         2.269340        -0.878918        -0.367714
 O         2.361447        -1.788178         0.819124
 C         2.440387        -0.691941         1.938869
 C         2.585573         0.525476         1.013848
 O         2.431457         1.757920         1.758199
 H         5.267385         0.705040        -1.295415
 H         5.192098         0.523778         0.436432
 H         5.412280        -0.763575        -0.439972
 H         2.288428         2.297047        -0.674519
 H         2.278345         1.228768        -2.064027
 H         0.440469         0.550378         0.352462
 H         2.198245        -1.415771        -1.372781
 H         1.503507        -0.748239         2.547076
 H         3.325423        -0.833557         2.581214
 H         2.892917         2.435892         1.317129
