19
Iteration:  2450
 C         4.771481         0.201428        -0.382375
 C         3.311933         0.186121        -0.241958
 C         2.263869         0.949198        -1.110120
 C         1.377191         0.247485        -0.037008
 C         2.418965        -1.040837        -0.233885
 O         2.456772        -1.671486         1.075273
 C         2.399166        -0.547655         1.977209
 C         2.436259         0.646001         1.037720
 O         2.645861         2.023511         1.459443
 H         5.034970         0.977996        -1.070634
 H         5.462684         0.169527         0.545376
 H         5.053129        -0.700107        -0.929370
 H         2.185225         2.095789        -1.162659
 H         2.099344         0.631039        -2.075613
 H         0.343687         0.359379         0.047764
 H         2.100503        -1.870950        -1.041171
 H         1.488726        -0.599223         2.618986
 H         3.212849        -0.713155         2.738695
 H         2.738923         2.662451         0.636734
