19
Iteration:  4977
 C         4.842640         0.493892        -0.475182
 C         3.364011         0.255978        -0.316260
 C         2.233235         1.180113        -1.031001
 C         1.412377         0.405386         0.028921
 C         2.317450        -0.931713        -0.308933
 O         2.222433        -1.797304         0.853029
 C         2.505784        -0.806215         1.852164
 C         2.578988         0.539780         1.052945
 O         2.575741         1.716359         1.818328
 H         5.403690        -0.083218        -1.293301
 H         5.026420         1.599669        -0.744928
 H         5.292047         0.092561         0.417633
 H         2.535693         2.210993        -1.080385
 H         2.161864         0.725037        -1.994479
 H         0.331519         0.370243         0.245062
 H         2.341335        -1.486716        -1.223579
 H         1.652392        -0.761929         2.524339
 H         3.409695        -1.186115         2.426952
 H         3.113845         2.500732         1.327645
