19
Iteration:   707charge 0 multiplicity 1
 C         4.799101         0.083124        -0.306348
 C         3.289844         0.181268        -0.234554
 C         2.203991         0.905407        -1.249949
 C         1.346879         0.170222        -0.111636
 C         2.276552        -0.982600        -0.111345
 O         2.587304        -1.617431         1.135760
 C         2.524236        -0.430576         1.964605
 C         2.487290         0.658413         0.938278
 O         2.577690         2.007097         1.496150
 H         5.265954        -0.434863         0.477233
 H         5.006916        -0.500335        -1.200517
 H         5.145360         1.113390        -0.509905
 H         2.321379         1.918926        -1.246470
 H         2.181332         0.578752        -2.406000
 H         0.188628         0.266027        -0.053867
 H         2.177258        -1.653405        -0.876668
 H         1.475617        -0.501126         2.300341
 H         3.178240        -0.464937         2.852310
 H         2.396868         2.765890         0.865130
