19
Iteration:   958
 C         4.803468         0.116065        -0.465710
 C         3.309822         0.191737        -0.228260
 C         2.228862         0.803755        -1.264832
 C         1.368439         0.263732        -0.121083
 C         2.331717        -0.988218        -0.152421
 O         2.579127        -1.615926         1.190150
 C         2.400669        -0.362630         1.981660
 C         2.431719         0.669885         0.925943
 O         2.610027         1.918353         1.586947
 H         5.040396        -0.565428         0.377674
 H         5.225798        -0.358187        -1.407799
 H         5.278184         1.170653        -0.328568
 H         2.258362         1.906322        -1.399076
 H         2.028857         0.192588        -2.217570
 H         0.154610         0.367206        -0.045207
 H         2.471381        -1.772517        -0.913119
 H         1.491343        -0.194921         2.608198
 H         3.183665        -0.355655         2.728410
 H         2.455314         2.783383         1.041148
