19
Iteration:  1081charge 0 multiplicity 1
 C         4.767432         0.119756        -0.448554
 C         3.278285         0.170844        -0.237597
 C         2.268367         0.846260        -1.348799
 C         1.374090         0.206564        -0.142433
 C         2.317407        -0.953851        -0.110222
 O         2.576398        -1.574126         1.187739
 C         2.402124        -0.445262         2.062147
 C         2.531078         0.709543         0.998269
 O         2.571023         1.951037         1.547277
 H         5.159987        -0.682146         0.249264
 H         5.036683        -0.251526        -1.422737
 H         5.267058         1.116660        -0.290190
 H         2.396477         1.868011        -1.591748
 H         2.090182         0.257598        -2.313850
 H         0.195928         0.226780         0.029025
 H         2.329149        -1.660747        -0.928494
 H         1.464268        -0.579643         2.553120
 H         3.196123        -0.504707         2.744954
 H         2.350855         2.683111         0.920732
