19
Iteration:  3441
 C         4.786378         0.288439        -0.392388
 C         3.269476         0.267803        -0.220858
 C         2.257315         1.249605        -0.883851
 C         1.373801         0.258938        -0.145687
 C         2.299340        -0.844144        -0.370521
 O         2.371091        -1.722401         0.813622
 C         2.473840        -0.761074         1.831689
 C         2.491662         0.548739         1.056250
 O         2.733815         1.740371         1.768113
 H         5.017516        -0.601360        -1.001493
 H         5.277970         1.154401        -0.680518
 H         5.318979         0.053289         0.569509
 H         2.329752         2.347572        -0.628503
 H         2.191949         1.319458        -1.953349
 H         0.267165         0.158671        -0.172536
 H         2.266283        -1.449510        -1.202670
 H         1.649767        -0.727433         2.543967
 H         3.385275        -0.716101         2.448363
 H         2.301674         2.408317         1.247041
