19
Iteration:  3820
 C         4.915177         0.202230        -0.374223
 C         3.398339         0.381905        -0.331896
 C         2.212797         1.165610        -1.121236
 C         1.368861         0.381800        -0.026298
 C         2.329813        -0.857429        -0.406875
 O         2.348212        -1.724627         0.792287
 C         2.434347        -0.776439         1.867272
 C         2.458234         0.603994         1.121829
 O         2.658344         1.717629         1.911787
 H         5.164965        -0.740613        -0.862609
 H         5.525505         1.106147        -0.677684
 H         5.154415        -0.082897         0.723104
 H         2.278065         2.265548        -1.293760
 H         2.046175         0.808099        -2.256565
 H         0.241902         0.509062         0.146193
 H         2.246328        -1.431577        -1.311211
 H         1.481635        -0.716081         2.467723
 H         3.344463        -1.005109         2.472844
 H         2.108858         2.518510         1.560332
