19
Iteration:  4437charge 0 multiplicity 1
 C         4.871444         0.293931        -0.235810
 C         3.271655         0.223572        -0.286655
 C         2.240280         1.345149        -0.939141
 C         1.333027         0.306004        -0.060055
 C         2.298195        -0.933679        -0.424047
 O         2.374590        -1.709892         0.793688
 C         2.469191        -0.690515         1.902853
 C         2.471777         0.448551         1.005329
 O         2.735183         1.741250         1.681785
 H         5.295682         0.362156        -1.212054
 H         5.308919         1.098118         0.271518
 H         5.308826        -0.616971         0.130551
 H         2.299582         2.395101        -0.644581
 H         2.214777         1.353335        -2.059887
 H         0.313497         0.184383         0.253648
 H         2.131774        -1.529354        -1.329350
 H         1.548236        -0.718977         2.509075
 H         3.379757        -0.969684         2.463702
 H         2.083230         2.358922         1.427234
