19
Iteration:  2518charge 0 multiplicity 1
 C         4.860090         0.151980        -0.404556
 C         3.344878         0.266364        -0.267433
 C         2.318705         0.839699        -1.236437
 C         1.395680         0.307407        -0.114218
 C         2.264975        -0.947205        -0.182883
 O         2.343729        -1.630748         1.061599
 C         2.689593        -0.610743         1.973513
 C         2.409513         0.712743         0.961340
 O         2.491865         1.979542         1.686792
 H         5.147324         0.579109        -1.402486
 H         5.476726         0.397609         0.539015
 H         4.918935        -0.987094        -0.498679
 H         2.270571         1.945707        -1.633242
 H         2.449361         0.314331        -2.148525
 H         0.244252         0.224758        -0.139792
 H         1.953472        -1.714901        -1.009713
 H         2.059372        -0.620149         2.896019
 H         3.741613        -0.629482         2.478587
 H         2.067929         2.618695         1.174762
