19
Iteration:  2911charge 0 multiplicity 1
 C         4.816859         0.247911        -0.494514
 C         3.325744         0.229206        -0.245580
 C         2.290562         1.050520        -1.076157
 C         1.453502         0.338621        -0.038806
 C         2.258258        -0.969084        -0.182168
 O         2.352133        -1.757699         0.957490
 C         2.494698        -0.634166         1.924072
 C         2.536930         0.617556         1.017384
 O         2.500657         1.883174         1.599187
 H         5.065367         1.152423        -1.100963
 H         5.140287         0.348431         0.552855
 H         5.282593        -0.611727        -0.929767
 H         2.377251         2.131664        -0.893004
 H         2.141496         0.966092        -2.148655
 H         0.402490         0.366808         0.174141
 H         2.257137        -1.507416        -1.218598
 H         1.738336        -0.680926         2.743016
 H         3.515583        -0.740334         2.453138
 H         3.409670         2.337997         1.582741
