19
Iteration:  1978charge 0 multiplicity 1
 C         4.795843         0.069897        -0.467957
 C         3.345900         0.239707        -0.203655
 C         2.308043         0.837844        -1.190749
 C         1.393917         0.236846        -0.114266
 C         2.273326        -0.990151        -0.128684
 O         2.499803        -1.635096         1.127739
 C         2.497755        -0.414457         1.994565
 C         2.489695         0.728147         0.939806
 O         2.504740         1.984766         1.530370
 H         5.130110        -0.763357         0.242434
 H         4.951367        -0.312828        -1.533972
 H         5.471807         1.005596        -0.260859
 H         2.358792         1.922508        -1.274606
 H         2.155750         0.267167        -2.231217
 H         0.361335         0.150926         0.195145
 H         2.349989        -1.792850        -0.866742
 H         1.581803        -0.381984         2.606979
 H         3.449065        -0.469827         2.623467
 H         1.970197         2.637234         0.999935
