19
Iteration:   372
 C         4.846181         0.026290        -0.444015
 C         3.360416         0.129079        -0.260523
 C         2.340751         0.828654        -1.199108
 C         1.357008         0.211836        -0.130732
 C         2.297128        -1.019156        -0.067731
 O         2.443912        -1.557893         1.161132
 C         2.515595        -0.372890         1.977036
 C         2.440061         0.700728         0.933980
 O         2.467538         2.010936         1.520469
 H         5.364673        -0.684856         0.200392
 H         5.269570        -0.058601        -1.438011
 H         5.352117         1.020150        -0.016424
 H         2.355111         1.985429        -1.401912
 H         2.242557         0.477635        -2.248956
 H         0.301847         0.054264         0.080387
 H         2.206258        -1.828102        -0.829065
 H         1.684389        -0.257396         2.694266
 H         3.495471        -0.339343         2.535418
 H         2.358404         2.674980         0.791704
