19
Iteration:  4220
 C         4.870483         0.218493        -0.448902
 C         3.389296         0.222275        -0.315809
 C         2.334398         1.220166        -0.954435
 C         1.424708         0.395160         0.042414
 C         2.243276        -0.853756        -0.340385
 O         2.344677        -1.753269         0.790083
 C         2.468337        -0.741023         1.941688
 C         2.570255         0.526863         0.992544
 O         2.427556         1.774323         1.734023
 H         5.398387         0.829067        -1.213384
 H         5.252359         0.709435         0.574393
 H         5.217179        -0.867343        -0.472337
 H         2.417086         2.298799        -0.656962
 H         2.189835         1.149950        -2.054086
 H         0.441383         0.505162         0.479627
 H         2.385884        -1.290165        -1.310921
 H         1.536586        -0.844812         2.499696
 H         3.344981        -0.797663         2.617172
 H         2.945278         2.445785         1.115199
