19
Iteration:  4048
 C         4.877433         0.161219        -0.431555
 C         3.371428         0.332341        -0.293153
 C         2.227333         1.189456        -1.141556
 C         1.418643         0.378908        -0.094254
 C         2.343796        -0.854141        -0.341785
 O         2.415852        -1.645790         0.798340
 C         2.407643        -0.782349         1.870777
 C         2.573232         0.585477         1.044238
 O         2.499275         1.665381         1.982978
 H         5.013263        -0.541999        -1.220548
 H         5.477980         1.078830        -0.615765
 H         5.301594        -0.282250         0.527292
 H         2.065530         2.315776        -0.904876
 H         2.021620         1.128312        -2.218103
 H         0.309779         0.531061         0.232765
 H         2.255353        -1.403688        -1.232517
 H         1.503223        -0.544652         2.452345
 H         3.275390        -0.907685         2.529020
 H         2.605138         2.516838         1.573237
