19
Iteration:  2609charge 0 multiplicity 1
 C         4.834005         0.253997        -0.394990
 C         3.289611         0.227130        -0.354649
 C         2.273112         0.840872        -1.256238
 C         1.387461         0.289155        -0.067565
 C         2.284572        -0.956655        -0.228682
 O         2.405832        -1.677866         1.057627
 C         2.504494        -0.564039         1.954033
 C         2.461466         0.648443         0.988148
 O         2.591985         1.956794         1.727629
 H         5.174304        -0.381392        -1.308078
 H         5.193401         1.279948        -0.611287
 H         5.320635        -0.335769         0.470824
 H         1.995783         1.907438        -1.236989
 H         2.286314         0.444200        -2.337968
 H         0.278151         0.405869        -0.028641
 H         2.085093        -1.601021        -0.949384
 H         1.662080        -0.565262         2.657307
 H         3.347960        -0.641354         2.679753
 H         3.374497         2.502613         1.398960
