19
Iteration:  1346charge 0 multiplicity 1
 C         4.815864         0.190223        -0.338717
 C         3.304060         0.214475        -0.330650
 C         2.234553         0.898804        -1.176180
 C         1.430236         0.206830        -0.056027
 C         2.338309        -1.014975        -0.140136
 O         2.443845        -1.692032         1.227790
 C         2.454925        -0.452106         1.964936
 C         2.442917         0.643785         0.976474
 O         2.630630         1.970431         1.381730
 H         5.387928        -0.071621         0.537159
 H         5.025484        -0.405047        -1.210633
 H         5.104671         1.152683        -0.568567
 H         2.425978         1.889947        -1.123993
 H         2.147514         0.708669        -2.321852
 H         0.286935         0.363654        -0.086448
 H         2.320186        -1.941474        -0.825871
 H         1.528037        -0.413579         2.626004
 H         3.253420        -0.128738         2.657614
 H         2.186375         2.487206         0.746672
