19
Iteration:   514
 C         4.835739         0.117951        -0.424362
 C         3.371325         0.209111        -0.250875
 C         2.362268         0.743690        -1.318139
 C         1.390090         0.261975        -0.112228
 C         2.264240        -0.967470        -0.139451
 O         2.335299        -1.543257         1.193819
 C         2.636926        -0.414589         1.989659
 C         2.450562         0.707195         0.944861
 O         2.440911         1.893561         1.580711
 H         5.301228        -0.608485         0.284951
 H         5.117487        -0.021986        -1.447631
 H         5.190975         1.193697        -0.083955
 H         2.174926         1.892457        -1.357862
 H         2.306020         0.079214        -2.105802
 H         0.372726         0.030629        -0.108160
 H         2.221407        -1.740340        -0.934820
 H         1.904052        -0.224211         2.771903
 H         3.658530        -0.330824         2.419278
 H         2.694559         2.577832         0.878093
