19
Iteration:  3973charge 0 multiplicity 1
 C         4.915402         0.234964        -0.285544
 C         3.354928         0.294389        -0.323492
 C         2.157138         1.195246        -1.098166
 C         1.399187         0.293467        -0.053943
 C         2.314929        -0.925077        -0.334393
 O         2.268994        -1.636727         0.779905
 C         2.542429        -0.720575         1.829375
 C         2.505547         0.614274         1.036390
 O         2.646656         1.683800         1.849629
 H         5.366817         0.794653        -1.100125
 H         5.200901         0.821469         0.596242
 H         5.352437        -0.798027        -0.181375
 H         2.218657         2.241731        -0.900634
 H         2.196151         0.859180        -2.143599
 H         0.291068         0.397430         0.231177
 H         2.183659        -1.368366        -1.289917
 H         1.679835        -0.846393         2.502833
 H         3.414435        -0.868318         2.434528
 H         2.273450         2.509577         1.506088
