19
Iteration:  3474charge 0 multiplicity 1
 C         4.805171         0.261288        -0.336696
 C         3.325917         0.274244        -0.281188
 C         2.273067         1.232964        -1.032084
 C         1.381603         0.402935        -0.041238
 C         2.240195        -0.839011        -0.331824
 O         2.414434        -1.735287         0.832949
 C         2.502490        -0.778517         1.832149
 C         2.507296         0.542978         1.054547
 O         2.651958         1.749383         1.683991
 H         5.201778        -0.220225        -1.273444
 H         5.272595         1.221078        -0.319724
 H         5.070852        -0.448619         0.483374
 H         2.488199         2.272305        -0.713928
 H         2.163082         0.972857        -2.046621
 H         0.267891         0.458435         0.016330
 H         2.049480        -1.420271        -1.201455
 H         1.642678        -0.820183         2.487985
 H         3.470402        -0.775043         2.410820
 H         1.990625         1.713001         2.485691
