19
Iteration:   826charge 0 multiplicity 1
 C         4.779613         0.155649        -0.348712
 C         3.276331         0.153137        -0.299290
 C         2.145468         0.853802        -1.274079
 C         1.406125         0.195332        -0.089225
 C         2.399102        -1.018081        -0.147456
 O         2.490553        -1.600332         1.184545
 C         2.405356        -0.444317         1.990797
 C         2.472528         0.701396         0.924960
 O         2.671497         1.965545         1.536942
 H         5.278526        -0.617344         0.221713
 H         5.148062         0.073367        -1.424309
 H         5.045217         1.173654         0.005301
 H         2.325593         1.916220        -1.471843
 H         1.979688         0.464978        -2.348160
 H         0.274900         0.221137         0.222483
 H         2.424582        -1.819530        -0.775043
 H         1.439404        -0.506033         2.575209
 H         3.245897        -0.205059         2.591623
 H         2.739210         2.636170         0.756323
