19
Iteration:  2964
 C         4.751900         0.232893        -0.410148
 C         3.274883         0.351345        -0.185411
 C         2.251091         0.974803        -1.189563
 C         1.348051         0.373678        -0.067333
 C         2.363073        -0.974164        -0.289986
 O         2.439083        -1.723618         0.971017
 C         2.507169        -0.622918         1.902581
 C         2.410138         0.626003         1.006605
 O         2.677562         1.894442         1.670607
 H         4.955634         0.373903        -1.514296
 H         5.371832         1.068097         0.036048
 H         4.955558        -0.744314         0.046655
 H         2.323348         2.106041        -1.209558
 H         2.141219         0.455756        -2.127630
 H         0.269316         0.306689         0.099905
 H         2.220024        -1.601433        -1.229876
 H         1.572132        -0.654179         2.427386
 H         3.432671        -0.811560         2.463397
 H         3.120503         1.578109         2.512762
