19
Iteration:  3104charge 0 multiplicity 1
 C         4.820581         0.304395        -0.488626
 C         3.276096         0.277014        -0.191055
 C         2.269404         1.130969        -1.002471
 C         1.371280         0.279022        -0.074163
 C         2.345331        -0.893040        -0.275268
 O         2.361459        -1.742224         0.910721
 C         2.489174        -0.722459         1.935913
 C         2.432056         0.583786         1.045435
 O         2.647923         1.834580         1.662278
 H         5.386509        -0.379669         0.178347
 H         4.973283        -0.184148        -1.488909
 H         5.294578         1.303176        -0.454878
 H         2.229789         2.290429        -0.777545
 H         2.103233         0.997735        -2.095925
 H         0.243035         0.201920         0.154848
 H         2.514193        -1.569720        -1.114495
 H         1.596197        -0.710284         2.656172
 H         3.476533        -0.794405         2.447631
 H         3.084314         2.190872         0.907981
