19
Iteration:  3826charge 0 multiplicity 1
 C         4.911223         0.192733        -0.356175
 C         3.386864         0.356980        -0.337441
 C         2.228396         1.190829        -1.159233
 C         1.404690         0.356789        -0.018285
 C         2.271322        -0.853439        -0.335380
 O         2.374422        -1.684829         0.782075
 C         2.409359        -0.711280         1.819620
 C         2.485151         0.576502         1.104199
 O         2.627181         1.675464         1.950601
 H         5.172282        -0.673866        -1.015645
 H         5.334481         1.091332        -0.786567
 H         5.135555        -0.174157         0.595983
 H         2.457471         2.261779        -1.358724
 H         2.055113         0.833184        -2.105132
 H         0.345863         0.289880         0.102680
 H         2.320611        -1.451433        -1.285591
 H         1.569583        -0.745855         2.501929
 H         3.316861        -0.730786         2.423972
 H         2.208125         2.479911         1.575730
