19
Iteration:  3008charge 0 multiplicity 1
 C         4.804766         0.183342        -0.384726
 C         3.302721         0.274598        -0.261209
 C         2.229805         1.206819        -0.986710
 C         1.461088         0.318022        -0.059106
 C         2.230805        -0.950584        -0.275232
 O         2.371596        -1.738335         0.967023
 C         2.623294        -0.627701         1.891644
 C         2.566850         0.560447         1.037474
 O         2.518822         1.817413         1.490216
 H         5.000546        -0.698174        -1.065034
 H         5.372455         1.038211        -0.884106
 H         5.096264        -0.084228         0.628131
 H         2.441846         2.215696        -0.576455
 H         2.003802         1.121873        -2.029149
 H         0.442778         0.592424         0.086860
 H         2.347172        -1.582309        -1.230580
 H         1.880721        -0.565897         2.681343
 H         3.676752        -0.494789         2.182339
 H         1.960857         1.951230         2.309980
