19
Iteration:  3352charge 0 multiplicity 1
 C         4.787814         0.232382        -0.484397
 C         3.297597         0.321532        -0.222233
 C         2.280452         1.236078        -0.918696
 C         1.363716         0.309480        -0.085443
 C         2.335675        -0.905617        -0.317381
 O         2.379699        -1.728129         0.787247
 C         2.573589        -0.783551         1.893392
 C         2.443104         0.525574         1.116161
 O         2.651095         1.852392         1.703781
 H         4.891966        -0.477723        -1.336239
 H         5.271219         1.180273        -0.458569
 H         5.384925        -0.385615         0.324102
 H         2.248758         2.314816        -0.638717
 H         2.260778         1.236044        -2.051591
 H         0.242731         0.395196         0.186662
 H         2.240225        -1.296077        -1.310151
 H         1.688366        -1.115688         2.449201
 H         3.575427        -1.001599         2.356196
 H         1.827634         2.273524         1.816495
