19
Iteration:  4730charge 0 multiplicity 1
 C         4.776610         0.183807        -0.346726
 C         3.314027         0.313171        -0.298009
 C         2.236705         1.148706        -1.140359
 C         1.417808         0.443229        -0.039380
 C         2.300974        -0.878631        -0.360588
 O         2.409171        -1.682860         0.812105
 C         2.668148        -0.715814         1.778442
 C         2.513115         0.536830         1.056326
 O         2.489911         1.723925         1.944223
 H         5.231820         0.480115        -1.342443
 H         5.328955         0.602933         0.464489
 H         5.027358        -0.881657        -0.287589
 H         2.202314         2.225077        -1.186780
 H         2.006963         0.773850        -2.190373
 H         0.453669         0.515573         0.380425
 H         2.097056        -1.530546        -1.186692
 H         1.845684        -0.657578         2.585122
 H         3.662319        -0.761429         2.270644
 H         2.133510         2.540400         1.571891
