19
Iteration:  4432
 C         4.824697         0.275762        -0.225443
 C         3.315087         0.266200        -0.306835
 C         2.253865         1.325967        -0.949049
 C         1.353908         0.272265        -0.100156
 C         2.271938        -0.923829        -0.418053
 O         2.374514        -1.690782         0.778864
 C         2.465584        -0.652665         1.910670
 C         2.510660         0.456656         1.015700
 O         2.733563         1.714299         1.719168
 H         5.196134         0.258987        -1.354268
 H         5.294539         1.258963         0.169487
 H         5.165344        -0.711380         0.192305
 H         2.211405         2.340858        -0.494500
 H         2.216219         1.194986        -2.034406
 H         0.290275         0.256165         0.289127
 H         2.140898        -1.544146        -1.357141
 H         1.570444        -0.852108         2.527862
 H         3.353630        -0.805176         2.533570
 H         1.993650         2.318554         1.404410
