19
Iteration:   853
 C         4.811859         0.160651        -0.330919
 C         3.281964         0.202478        -0.292635
 C         2.238895         0.825585        -1.292307
 C         1.329609         0.203136        -0.082382
 C         2.225325        -0.929897        -0.152647
 O         2.523342        -1.649467         1.163220
 C         2.518206        -0.410659         2.014232
 C         2.486810         0.673374         0.933592
 O         2.624517         1.930545         1.531774
 H         5.291752        -0.358910         0.560246
 H         5.062378        -0.342094        -1.237605
 H         5.178963         1.207805        -0.281390
 H         2.353178         1.883759        -1.630730
 H         2.370731         0.286520        -2.313048
 H         0.246698         0.300296         0.046250
 H         2.087882        -1.820766        -0.905097
 H         1.584520        -0.446977         2.651081
 H         3.526304        -0.203143         2.533157
 H         2.326862         2.644258         0.875025
