19
Iteration:   519
 C         4.845541         0.123895        -0.383568
 C         3.372421         0.174464        -0.250586
 C         2.319145         0.745128        -1.297786
 C         1.367307         0.254928        -0.127998
 C         2.313001        -0.947326        -0.124546
 O         2.340748        -1.553646         1.185549
 C         2.646136        -0.421639         1.995231
 C         2.427232         0.708001         0.892596
 O         2.432219         1.929666         1.587379
 H         5.360794        -0.678277         0.170600
 H         5.103933        -0.026129        -1.466801
 H         5.251888         1.049184        -0.130339
 H         2.392784         1.789506        -1.449619
 H         2.287218         0.227797        -2.353903
 H         0.230656         0.183333         0.083012
 H         2.264251        -1.767035        -0.892776
 H         1.961445        -0.227962         2.853023
 H         3.687920        -0.520964         2.367432
 H         2.695207         2.653545         0.995458
