19
Iteration:  2615charge 0 multiplicity 1
 C         4.913796         0.230794        -0.439070
 C         3.302425         0.216537        -0.343786
 C         2.246078         0.849511        -1.242581
 C         1.377204         0.318576        -0.137289
 C         2.262902        -0.971446        -0.196347
 O         2.380069        -1.673799         1.087009
 C         2.541351        -0.580737         1.968592
 C         2.495577         0.698402         0.962391
 O         2.547567         1.923485         1.740654
 H         5.139374        -0.414086        -1.254970
 H         5.258931         1.264314        -0.596082
 H         5.323332         0.001714         0.528861
 H         2.119893         1.998279        -1.233142
 H         2.211907         0.557239        -2.258748
 H         0.269312         0.259247         0.024164
 H         1.854867        -1.717989        -1.067993
 H         1.620923        -0.623969         2.605580
 H         3.476907        -0.503828         2.598431
 H         3.310231         2.387624         1.527322
