19
Iteration:  1675
 C         4.814409         0.159412        -0.409302
 C         3.313240         0.211082        -0.236365
 C         2.274422         0.860418        -1.113507
 C         1.343968         0.119009        -0.145227
 C         2.375342        -0.983416        -0.129793
 O         2.409360        -1.649833         1.140218
 C         2.502292        -0.450686         2.020302
 C         2.405465         0.684243         0.994404
 O         2.586015         2.027604         1.409657
 H         5.191877        -0.780082         0.105931
 H         5.162102         0.085064        -1.523099
 H         5.395734         0.975403         0.050970
 H         2.145867         1.963327        -1.089317
 H         2.354000         0.543030        -2.067425
 H         0.306008         0.273037        -0.083109
 H         2.343797        -1.775078        -0.898103
 H         1.651693        -0.275819         2.719601
 H         3.458705        -0.496737         2.523840
 H         2.813721         2.588598         0.674593
