19
Iteration:  1203
 C         4.813752         0.171625        -0.380996
 C         3.314395         0.161709        -0.307433
 C         2.134664         0.875409        -1.218108
 C         1.437096         0.196687        -0.121821
 C         2.337928        -1.059285        -0.123408
 O         2.500992        -1.594654         1.186060
 C         2.407570        -0.401496         2.001659
 C         2.425277         0.689594         0.930932
 O         2.682717         1.964805         1.502262
 H         5.265876        -0.411067         0.458079
 H         5.163091        -0.222857        -1.338564
 H         5.136381         1.165821        -0.200700
 H         2.186371         1.896566        -1.353847
 H         2.232286         0.412782        -2.259302
 H         0.268016         0.080647        -0.031990
 H         2.272484        -1.962757        -0.841060
 H         1.499241        -0.589959         2.573114
 H         3.229693        -0.191942         2.690720
 H         2.468746         2.637143         0.899322
