19
Iteration:  4155charge 0 multiplicity 1
 C         4.845636         0.216360        -0.348291
 C         3.271078         0.361541        -0.289548
 C         2.323516         1.104789        -1.146548
 C         1.376353         0.461930        -0.092234
 C         2.238025        -0.840035        -0.316990
 O         2.406514        -1.706650         0.787037
 C         2.487663        -0.774151         1.845019
 C         2.522780         0.559269         1.037395
 O         2.580679         1.693777         1.923122
 H         5.317134        -0.036476        -1.286889
 H         5.272582         1.247283        -0.138120
 H         5.068461        -0.602756         0.385105
 H         2.546874         2.148964        -0.864698
 H         2.294301         0.835843        -2.201282
 H         0.306244         0.531204         0.137687
 H         2.293370        -1.428329        -1.199356
 H         1.572013        -0.902757         2.462684
 H         3.399955        -0.909695         2.486639
 H         2.454507         2.583688         1.563921
