19
Iteration:  3745charge 0 multiplicity 1
 C         4.831300         0.225617        -0.356843
 C         3.393056         0.339259        -0.286995
 C         2.281208         1.174924        -1.068479
 C         1.391494         0.362503        -0.029809
 C         2.284471        -0.867751        -0.403942
 O         2.252702        -1.718377         0.758386
 C         2.548768        -0.759244         1.861910
 C         2.529352         0.568610         1.014271
 O         2.599911         1.733529         1.923517
 H         4.980955        -0.772693        -0.813574
 H         5.379432         1.053077        -0.790805
 H         5.270413         0.375728         0.677094
 H         2.300541         2.224736        -0.952600
 H         2.318294         0.798058        -2.128752
 H         0.277196         0.296889         0.155575
 H         2.273383        -1.367101        -1.353824
 H         1.671967        -0.778732         2.584227
 H         3.517779        -0.776534         2.427328
 H         2.352858         2.514255         1.497265
