19
Iteration:  4513charge 0 multiplicity 1
 C         4.869249         0.161552        -0.443742
 C         3.359682         0.363441        -0.293954
 C         2.286818         1.277956        -1.153100
 C         1.397061         0.364615        -0.157260
 C         2.314844        -0.932061        -0.389387
 O         2.360243        -1.715585         0.934188
 C         2.519665        -0.665891         1.875969
 C         2.459312         0.583446         1.065473
 O         2.546704         1.653197         1.947789
 H         5.232432         0.678084        -1.396652
 H         5.403239         0.587841         0.379601
 H         5.298305        -0.856431        -0.482438
 H         2.485255         2.352303        -1.001965
 H         2.080254         1.074092        -2.246071
 H         0.350666         0.317226        -0.010462
 H         2.259513        -1.634030        -1.224364
 H         1.629220        -0.784302         2.515564
 H         3.447165        -0.745108         2.503274
 H         1.926087         2.508325         1.784003
