19
Iteration:  1095charge 0 multiplicity 1
 C         4.820368         0.092542        -0.466394
 C         3.328509         0.247832        -0.302085
 C         2.299117         0.802136        -1.198936
 C         1.423342         0.255222        -0.090921
 C         2.304069        -1.057958        -0.121451
 O         2.546175        -1.622929         1.155989
 C         2.438134        -0.449615         2.019709
 C         2.382404         0.694440         0.957613
 O         2.557222         2.033439         1.555544
 H         5.304388        -0.494163         0.417884
 H         4.970601        -0.430021        -1.450662
 H         5.227111         1.071915        -0.610306
 H         2.136161         1.937805        -1.323278
 H         2.330242         0.471134        -2.243324
 H         0.317819         0.293532        -0.041251
 H         2.121418        -1.895625        -0.802986
 H         1.493993        -0.382554         2.541821
 H         3.254049        -0.381369         2.745208
 H         2.348590         2.574656         0.795107
