19
Iteration:  2545
 C         4.822566         0.147798        -0.323745
 C         3.315598         0.135574        -0.347441
 C         2.251231         0.990797        -1.117929
 C         1.389600         0.286310        -0.040605
 C         2.328704        -0.948155        -0.216171
 O         2.387877        -1.644108         1.097111
 C         2.606018        -0.535720         1.947735
 C         2.499581         0.636986         0.916013
 O         2.544160         1.907267         1.542916
 H         5.018447         0.574336        -1.294592
 H         5.192745         0.665172         0.522309
 H         5.225090        -0.858311        -0.204398
 H         2.283345         2.019420        -1.064554
 H         2.152846         0.850664        -2.247199
 H         0.324289         0.390455         0.002350
 H         2.129452        -1.634303        -0.969726
 H         1.796648        -0.273725         2.657977
 H         3.476674        -0.632367         2.539801
 H         2.034904         2.465886         0.979116
