19
Iteration:  1041
 C         4.844602         0.163637        -0.346172
 C         3.360669         0.180560        -0.280257
 C         2.216031         0.856298        -1.265386
 C         1.334102         0.200592        -0.152625
 C         2.277843        -1.042331        -0.127586
 O         2.404019        -1.627300         1.181645
 C         2.592915        -0.444642         2.022125
 C         2.452888         0.665661         0.917564
 O         2.553387         2.008359         1.503938
 H         5.424480        -0.644788         0.103838
 H         5.183043         0.353983        -1.385097
 H         5.158865         0.952208         0.283598
 H         2.335136         1.971163        -1.220225
 H         2.137094         0.431315        -2.243574
 H         0.333936         0.026203         0.043726
 H         2.145389        -1.853797        -0.818966
 H         1.918355        -0.041058         2.796704
 H         3.605106        -0.537160         2.482617
 H         2.590044         2.632213         0.753467
