19
Iteration:  3598charge 0 multiplicity 1
 C         4.796614         0.174276        -0.343131
 C         3.253526         0.323660        -0.302726
 C         2.287457         1.139452        -1.102792
 C         1.393447         0.346696        -0.125137
 C         2.273141        -0.908640        -0.367926
 O         2.377222        -1.702864         0.809209
 C         2.491702        -0.615077         1.888288
 C         2.512935         0.581312         1.071969
 O         2.666103         1.687374         1.887378
 H         5.235077         0.868436        -1.065169
 H         5.208800         0.689596         0.612703
 H         5.090397        -0.838208        -0.416537
 H         2.350238         2.208088        -0.980606
 H         2.189854         1.052295        -2.154244
 H         0.327654         0.381091         0.080742
 H         2.286242        -1.529277        -1.376860
 H         1.678294        -0.672181         2.628538
 H         3.397528        -0.622393         2.553915
 H         2.540361         2.543326         1.324210
