19
Iteration:  3066
 C         4.797485         0.262697        -0.440079
 C         3.317716         0.256373        -0.315045
 C         2.229857         1.045243        -1.244913
 C         1.333422         0.410905        -0.048682
 C         2.247850        -0.944692        -0.222215
 O         2.490587        -1.715877         0.984725
 C         2.481758        -0.602275         1.834054
 C         2.566207         0.620872         1.012338
 O         2.641497         1.719086         1.831532
 H         5.174713        -0.744770        -0.306523
 H         5.068194         0.687451        -1.371747
 H         5.251286         0.906035         0.309281
 H         2.485491         2.003693        -1.202983
 H         2.077942         0.738259        -2.267096
 H         0.330098         0.526489         0.302665
 H         2.163894        -1.486922        -1.171853
 H         1.576444        -0.601759         2.334364
 H         3.180487        -0.735825         2.640046
 H         1.998436         2.402603         1.746017
