19
Iteration:  4260charge 0 multiplicity 1
 C         4.760992         0.325913        -0.271579
 C         3.235163         0.331568        -0.241753
 C         2.334113         1.158256        -1.098008
 C         1.288191         0.343283        -0.208891
 C         2.333579        -0.881787        -0.314140
 O         2.294660        -1.745337         0.836065
 C         2.569460        -0.715627         1.848117
 C         2.446454         0.596047         1.044046
 O         2.744283         1.686329         1.837991
 H         5.162364         0.631727        -1.254658
 H         5.271399         0.711195         0.539882
 H         5.017087        -0.695794        -0.234191
 H         2.437876         2.227593        -0.987744
 H         2.225051         0.930058        -2.188645
 H         0.217074         0.323960         0.015450
 H         2.551129        -1.593874        -1.216986
 H         1.839256        -0.699436         2.662176
 H         3.554002        -0.972121         2.230881
 H         2.585799         2.526295         1.530530
