19
Iteration:   851charge 0 multiplicity 1
 C         4.814011         0.174826        -0.334031
 C         3.271201         0.191218        -0.312266
 C         2.241316         0.821467        -1.276422
 C         1.337071         0.199550        -0.079151
 C         2.233878        -0.934479        -0.149607
 O         2.532507        -1.642432         1.151807
 C         2.508036        -0.411942         2.032620
 C         2.476968         0.683637         0.934536
 O         2.635690         1.922967         1.536229
 H         5.235752        -0.416857         0.519628
 H         5.093001        -0.340951        -1.208121
 H         5.261039         1.229791        -0.248035
 H         2.259178         1.829386        -1.624744
 H         2.379282         0.259143        -2.362848
 H         0.154675         0.340163        -0.040681
 H         2.071375        -1.790167        -0.896259
 H         1.554470        -0.328872         2.644925
 H         3.481005        -0.262253         2.559984
 H         2.338039         2.644690         0.841118
