19
Iteration:  4582charge 0 multiplicity 1
 C         4.772734         0.238418        -0.300972
 C         3.332929         0.293857        -0.284654
 C         2.270930         1.250463        -1.001465
 C         1.400411         0.287029        -0.075462
 C         2.287680        -0.881970        -0.427875
 O         2.387935        -1.686837         0.799852
 C         2.523064        -0.671699         1.829499
 C         2.459534         0.474302         1.042717
 O         2.571860         1.753888         1.825667
 H         5.001106        -0.181400        -1.236180
 H         5.337030         1.208512        -0.259907
 H         5.248790        -0.446560         0.427088
 H         2.256450         2.391252        -0.761565
 H         2.052984         1.016881        -2.081767
 H         0.291042         0.312615         0.182885
 H         2.388042        -1.525725        -1.302325
 H         1.666877        -0.695675         2.553492
 H         3.497085        -0.849876         2.379214
 H         3.432671         2.151579         1.680238
