19
Iteration:  1085
 C         4.767823         0.112840        -0.440887
 C         3.283421         0.215832        -0.278657
 C         2.275815         0.825691        -1.348763
 C         1.400675         0.224673        -0.130014
 C         2.274403        -0.993943        -0.091053
 O         2.570650        -1.579170         1.176293
 C         2.414656        -0.462458         2.046603
 C         2.497907         0.663399         1.013079
 O         2.567155         1.992993         1.545609
 H         5.384865        -0.567634         0.270503
 H         4.978030        -0.318826        -1.466290
 H         5.335040         1.006072        -0.360946
 H         2.349291         1.981434        -1.333434
 H         2.220539         0.256183        -2.266020
 H         0.346891         0.178478         0.013284
 H         2.313865        -1.642455        -0.964787
 H         1.432946        -0.630358         2.530705
 H         3.209291        -0.313132         2.837218
 H         2.355575         2.745878         0.927815
