19
Iteration:  4857charge 0 multiplicity 1
 C         4.838790         0.227093        -0.404729
 C         3.283253         0.286182        -0.215292
 C         2.287855         1.167340        -1.068732
 C         1.343863         0.352335        -0.140100
 C         2.219444        -0.814745        -0.332346
 O         2.390184        -1.759940         0.855131
 C         2.673339        -0.732464         1.871601
 C         2.454258         0.581930         1.090060
 O         2.571580         1.745319         1.830426
 H         5.082209         0.784510        -1.372388
 H         5.493704         0.822911         0.298534
 H         5.149458        -0.792922        -0.579558
 H         2.272310         2.231840        -0.808304
 H         2.310831         0.989454        -2.140864
 H         0.254742         0.204291        -0.201095
 H         2.135701        -1.339519        -1.271665
 H         1.973185        -0.801477         2.666752
 H         3.729707        -0.811817         2.227121
 H         2.101231         2.469970         1.587140
