19
Iteration:   839
 C         4.785637         0.184365        -0.360600
 C         3.290268         0.203112        -0.343309
 C         2.218710         0.779306        -1.252432
 C         1.363827         0.270635        -0.121836
 C         2.324905        -1.062069        -0.118437
 O         2.530189        -1.555739         1.135880
 C         2.468040        -0.413814         2.020151
 C         2.434205         0.676593         0.965400
 O         2.673061         1.933262         1.533637
 H         5.006590        -0.531751         0.439938
 H         5.273614        -0.130128        -1.266248
 H         5.318519         1.161303        -0.077683
 H         2.090772         1.827506        -1.272752
 H         1.945131         0.170188        -2.256985
 H         0.161486         0.226598        -0.151300
 H         2.147107        -1.763947        -0.939861
 H         1.508150        -0.344335         2.640520
 H         3.230623        -0.581464         2.766038
 H         2.552334         2.617105         0.915935
