19
Iteration:   808charge 0 multiplicity 1
 C         4.834724         0.212902        -0.439675
 C         3.329936         0.266399        -0.267590
 C         2.270318         0.842866        -1.176313
 C         1.368116         0.193985        -0.112577
 C         2.284127        -1.073240        -0.120006
 O         2.451562        -1.654155         1.183258
 C         2.472826        -0.352939         2.044399
 C         2.466352         0.642016         0.959761
 O         2.605478         1.953136         1.442795
 H         5.178488        -0.718732         0.043454
 H         5.084036         0.231031        -1.458846
 H         5.333131         1.020727         0.162264
 H         2.072279         1.896204        -1.159912
 H         2.162254         0.500133        -2.279774
 H         0.271475         0.060740        -0.028653
 H         2.099087        -1.823930        -0.970555
 H         1.504930        -0.384945         2.559626
 H         3.303466        -0.622504         2.720623
 H         2.868159         2.620608         0.718864
