19
Iteration:   313charge 0 multiplicity 1
 C         4.806423         0.182174        -0.401651
 C         3.353918         0.161782        -0.247468
 C         2.293099         0.775113        -1.239462
 C         1.410838         0.174349        -0.163693
 C         2.269640        -1.086832        -0.153878
 O         2.429857        -1.546028         1.180721
 C         2.427758        -0.375568         2.021263
 C         2.439868         0.639657         0.969945
 O         2.686198         2.028187         1.482557
 H         5.187570        -0.516059         0.391568
 H         5.126062        -0.112406        -1.463195
 H         5.034553         1.245890        -0.141822
 H         2.230489         1.958758        -1.133091
 H         2.019363         0.386534        -2.238957
 H         0.362756         0.267339         0.124655
 H         2.264055        -1.954408        -0.747703
 H         1.562891        -0.275125         2.710242
 H         3.345530        -0.413045         2.588534
 H         2.103462         2.398056         0.852636
