19
Iteration:  1667
 C         4.847926         0.132744        -0.377615
 C         3.304809         0.168130        -0.265017
 C         2.255342         0.942718        -1.199909
 C         1.405971         0.144696        -0.174331
 C         2.324552        -1.038299        -0.109287
 O         2.387058        -1.573121         1.153139
 C         2.559691        -0.452251         2.050565
 C         2.461425         0.689508         1.037125
 O         2.516229         1.997437         1.432702
 H         5.338470        -0.737996         0.048388
 H         5.002852         0.049384        -1.497519
 H         5.313030         1.090073        -0.020789
 H         2.323435         1.982993        -1.243077
 H         2.206168         0.544730        -2.314744
 H         0.245288         0.077575         0.031858
 H         2.328131        -1.731386        -1.010141
 H         1.721984        -0.533573         2.836177
 H         3.477181        -0.617618         2.666816
 H         2.772742         2.390452         0.572209
