19
Iteration:  3367
 C         4.786639         0.204291        -0.479381
 C         3.312747         0.348916        -0.230313
 C         2.265725         1.231594        -1.004281
 C         1.395550         0.371257        -0.086922
 C         2.345405        -0.853831        -0.361584
 O         2.349427        -1.726552         0.853102
 C         2.549685        -0.757672         1.882332
 C         2.430829         0.571122         1.063502
 O         2.624048         1.715189         1.755582
 H         5.051236        -0.476651        -1.341958
 H         5.230272         1.226349        -0.798138
 H         5.348098        -0.086359         0.406304
 H         2.334192         2.337118        -0.753807
 H         2.159711         1.105603        -2.060794
 H         0.295111         0.304286        -0.115848
 H         2.417355        -1.582393        -1.174066
 H         1.998613        -0.720983         2.832067
 H         3.612736        -0.714295         2.231652
 H         2.039330         1.740804         2.604342
