19
Iteration:   302
 C         4.749348         0.202682        -0.356798
 C         3.251080         0.096636        -0.316804
 C         2.302493         0.791384        -1.275945
 C         1.404662         0.173734        -0.138310
 C         2.297496        -1.096013        -0.090180
 O         2.348536        -1.508152         1.184931
 C         2.529567        -0.397791         1.991400
 C         2.565558         0.712151         0.938663
 O         2.618034         1.981394         1.522945
 H         5.262680        -0.387231         0.461799
 H         5.278608        -0.160918        -1.308120
 H         5.101155         1.256285        -0.196139
 H         2.339561         1.941080        -1.527843
 H         2.359844         0.266614        -2.257318
 H         0.315709         0.163006        -0.046827
 H         2.284623        -1.874399        -0.794624
 H         1.735220        -0.453514         2.754664
 H         3.489788        -0.474271         2.502598
 H         2.266723         2.706164         1.040346
