19
Iteration:   457
 C         4.821470         0.213091        -0.378512
 C         3.256201         0.203603        -0.273731
 C         2.334753         0.851141        -1.179759
 C         1.404675         0.226259        -0.110724
 C         2.289265        -1.053466        -0.172877
 O         2.473581        -1.549579         1.162237
 C         2.377714        -0.497218         2.141028
 C         2.527924         0.594503         0.942253
 O         2.636049         1.961203         1.355165
 H         5.142949        -0.162562         0.572060
 H         4.977968        -0.564084        -1.148720
 H         5.324178         1.233339        -0.636342
 H         2.109762         2.001366        -1.196077
 H         2.259432         0.654213        -2.215956
 H         0.370830         0.237240         0.167210
 H         2.235840        -1.864342        -0.810917
 H         1.381973        -0.384385         2.582777
 H         3.133937        -0.557191         2.928112
 H         2.277221         2.710343         0.840137
