19
Iteration:  2515charge 0 multiplicity 1
 C         4.863195         0.129251        -0.406656
 C         3.318015         0.256837        -0.275317
 C         2.348941         0.831047        -1.255824
 C         1.363013         0.285815        -0.130916
 C         2.294608        -0.928215        -0.176516
 O         2.349177        -1.638916         1.077492
 C         2.682053        -0.613142         1.962064
 C         2.417374         0.737855         0.982858
 O         2.490503         1.983572         1.712136
 H         5.141742         0.571741        -1.323741
 H         5.463116         0.490162         0.459916
 H         4.938466        -0.899883        -0.629229
 H         2.223425         1.971554        -1.499652
 H         2.355207         0.211652        -2.171222
 H         0.332322         0.297724        -0.181938
 H         1.949977        -1.642932        -1.058595
 H         2.039979        -0.550058         2.859659
 H         3.699407        -0.682335         2.382166
 H         2.076198         2.674461         1.117115
