19
Iteration:  3168charge 0 multiplicity 1
 C         4.779620         0.164892        -0.429608
 C         3.294532         0.310035        -0.317174
 C         2.236857         1.095135        -1.193351
 C         1.395400         0.374397        -0.054992
 C         2.212958        -0.913881        -0.266158
 O         2.466346        -1.635456         0.920161
 C         2.638779        -0.674694         1.862913
 C         2.510686         0.541844         0.968734
 O         2.546163         1.825728         1.836222
 H         5.293357         0.386251         0.510298
 H         4.846042        -0.922408        -0.510929
 H         5.345517         0.785738        -1.147640
 H         2.299854         2.215989        -1.142331
 H         2.051494         0.949743        -2.245768
 H         0.213658         0.336060         0.199592
 H         2.215984        -1.485059        -1.171072
 H         1.713664        -0.587856         2.461501
 H         3.652398        -0.697657         2.285865
 H         2.446578         1.549147         2.783784
