19
Iteration:  3328charge 0 multiplicity 1
 C         4.791166         0.237712        -0.416552
 C         3.279169         0.274991        -0.308452
 C         2.245325         1.209366        -0.981718
 C         1.398007         0.372686         0.107693
 C         2.252301        -0.847322        -0.335231
 O         2.500330        -1.748592         0.788978
 C         2.491118        -0.756826         1.867469
 C         2.556642         0.509371         1.106308
 O         2.588248         1.789512         1.708382
 H         5.143277         0.103208        -1.429759
 H         5.077934         1.086745         0.155812
 H         5.230190        -0.621012         0.138966
 H         2.344536         2.280489        -0.878362
 H         2.079393         1.065687        -2.099558
 H         0.349845         0.619099         0.267090
 H         2.025553        -1.263197        -1.353278
 H         1.552101        -0.932698         2.401885
 H         3.400117        -1.011330         2.397647
 H         2.324753         2.355272         0.943930
