19
Iteration:   137charge 0 multiplicity 1
 C         4.768129         0.139768        -0.393953
 C         3.307278         0.185638        -0.277445
 C         2.295745         0.898580        -1.207168
 C         1.395944         0.225281        -0.150265
 C         2.324967        -1.055477        -0.087433
 O         2.310434        -1.688690         1.285652
 C         2.641336        -0.442982         2.000212
 C         2.507009         0.654706         0.907935
 O         2.526352         2.070578         1.302484
 H         5.265863        -0.593551         0.406521
 H         5.051550         0.231102        -1.473781
 H         4.957619         1.172257         0.061181
 H         2.178526         2.038069        -1.277453
 H         2.217261         0.280283        -2.191258
 H         0.302027         0.377927        -0.004428
 H         2.267006        -1.842217        -0.867364
 H         2.034438        -0.299608         2.941166
 H         3.765434        -0.533792         2.241014
 H         2.783611         2.139983         2.218677
