19
Iteration:  3711
 C         4.763702         0.206535        -0.401965
 C         3.307391         0.261718        -0.276945
 C         2.302300         1.192718        -1.116986
 C         1.392221         0.475519        -0.149934
 C         2.288214        -0.854893        -0.410895
 O         2.454390        -1.749433         0.832945
 C         2.468407        -0.699199         1.888859
 C         2.444049         0.579298         1.049088
 O         2.574946         1.702077         2.002904
 H         5.132062        -0.581789        -1.059937
 H         5.152079         0.976566        -1.035270
 H         5.398101         0.000954         0.498130
 H         2.401680         2.232745        -1.150202
 H         2.344276         0.891526        -2.204855
 H         0.289141         0.609227         0.086822
 H         2.329026        -1.581321        -1.144160
 H         1.569421        -1.011811         2.482389
 H         3.335771        -0.792082         2.592026
 H         3.081855         2.412445         1.567562
