19
Iteration:  1687charge 0 multiplicity 1
 C         4.770682         0.172571        -0.386011
 C         3.319613         0.271987        -0.176570
 C         2.261743         0.830999        -1.156004
 C         1.360379         0.244549        -0.060763
 C         2.381125        -1.084936        -0.166887
 O         2.468224        -1.664832         1.186861
 C         2.401846        -0.422417         1.959901
 C         2.418089         0.671033         0.903884
 O         2.662420         2.003319         1.433015
 H         5.091804        -0.816126         0.067121
 H         5.039459         0.180014        -1.562126
 H         5.254438         1.032746         0.149792
 H         2.194257         1.933365        -1.143237
 H         2.143671         0.511939        -2.134470
 H         0.279036        -0.043455        -0.126225
 H         2.443208        -1.796966        -1.077694
 H         1.549020        -0.668999         2.695845
 H         3.283473        -0.223516         2.579300
 H         2.776199         2.617640         0.604718
