19
Iteration:  4651charge 0 multiplicity 1
 C         4.863766         0.402002        -0.423530
 C         3.345698         0.305977        -0.250367
 C         2.283783         1.213431        -0.927953
 C         1.395894         0.358894        -0.027217
 C         2.303287        -0.941895        -0.432149
 O         2.306484        -1.752050         0.819141
 C         2.445733        -0.769793         1.902142
 C         2.473002         0.514155         1.052163
 O         2.658436         1.758143         1.694414
 H         5.186205        -0.313426        -1.226701
 H         5.224122         1.364581        -0.752487
 H         5.435343         0.072091         0.425114
 H         2.235950         2.298532        -0.689595
 H         2.118988         1.018290        -2.029156
 H         0.315479         0.411102         0.018316
 H         2.244836        -1.586895        -1.362552
 H         1.669571        -0.830530         2.744340
 H         3.463076        -0.961903         2.327880
 H         2.435955         1.776657         2.576991
