19
Iteration:  3801
 C         4.790886         0.247497        -0.289894
 C         3.317614         0.288694        -0.206352
 C         2.289770         1.194818        -1.024987
 C         1.437221         0.393083        -0.071005
 C         2.274263        -0.849579        -0.290881
 O         2.349451        -1.734606         0.720584
 C         2.461074        -0.823894         1.843728
 C         2.512192         0.551897         1.050839
 O         2.687519         1.784523         1.775456
 H         5.096838        -0.676693        -0.878051
 H         4.979333         1.090367        -0.898003
 H         5.271206         0.123910         0.686227
 H         2.374510         2.264877        -0.888334
 H         2.165007         1.077836        -2.087253
 H         0.352884         0.317300        -0.068477
 H         2.218148        -1.327465        -1.299962
 H         1.593623        -0.951435         2.528000
 H         3.435299        -0.887196         2.389290
 H         2.034355         2.477703         1.416367
