19
Iteration:  1962
 C         4.890482         0.021777        -0.408295
 C         3.315532         0.173075        -0.397844
 C         2.177157         0.797151        -1.292145
 C         1.397369         0.273208        -0.050559
 C         2.380217        -0.969344        -0.130217
 O         2.538247        -1.573653         1.156128
 C         2.458969        -0.448833         2.009661
 C         2.414024         0.683115         1.015719
 O         2.550231         2.004412         1.598354
 H         5.290439        -0.792814         0.149927
 H         5.279375         0.080090        -1.397268
 H         5.274233         0.935124        -0.057501
 H         2.153582         1.963079        -1.605805
 H         2.125498         0.374960        -2.237228
 H         0.275657         0.466626        -0.236440
 H         1.999346        -1.705814        -0.888037
 H         1.521617        -0.426029         2.620734
 H         3.269981        -0.420493         2.705904
 H         2.100983         2.617996         0.902448
