19
Iteration:  1042
 C         4.848843         0.164513        -0.350222
 C         3.366038         0.175339        -0.276157
 C         2.213853         0.856873        -1.277310
 C         1.333850         0.191308        -0.148642
 C         2.276445        -1.039060        -0.122413
 O         2.410363        -1.628766         1.179643
 C         2.578251        -0.444030         2.014623
 C         2.448556         0.681867         0.913640
 O         2.556674         2.005203         1.507356
 H         5.400835        -0.629406         0.124270
 H         5.166948         0.335159        -1.411088
 H         5.182828         0.934475         0.308687
 H         2.345720         1.987186        -1.206338
 H         2.117290         0.429511        -2.237553
 H         0.353004         0.031091         0.070815
 H         2.143847        -1.856053        -0.829547
 H         1.917054        -0.037266         2.834026
 H         3.623218        -0.525755         2.496756
 H         2.585294         2.610880         0.792123
