19
Iteration:  3910
 C         4.858784         0.235142        -0.318508
 C         3.321985         0.319797        -0.330531
 C         2.226189         1.295837        -1.064495
 C         1.469093         0.313540        -0.025066
 C         2.280272        -0.863379        -0.347270
 O         2.342817        -1.769214         0.854306
 C         2.470673        -0.759338         1.887446
 C         2.522836         0.544065         1.019459
 O         2.615986         1.734065         1.768058
 H         5.282615         0.684145        -1.278552
 H         5.286454         0.722205         0.537587
 H         5.247339        -0.814311        -0.257480
 H         2.197861         2.334489        -0.703420
 H         2.198350         1.166107        -2.213226
 H         0.411826         0.425899         0.122768
 H         1.992979        -1.512982        -1.205929
 H         1.511928        -0.789440         2.454202
 H         3.375947        -0.881033         2.534500
 H         2.460547         2.533612         1.173143
