19
Iteration:  1803
 C         4.828963         0.052128        -0.420526
 C         3.298111         0.168081        -0.390864
 C         2.291831         0.913549        -1.234227
 C         1.413413         0.267745        -0.070638
 C         2.361485        -1.050680        -0.177846
 O         2.510593        -1.564978         1.143611
 C         2.491756        -0.430404         2.054131
 C         2.465395         0.667984         1.003080
 O         2.458166         1.967825         1.555465
 H         5.310792        -0.098075         0.567595
 H         5.226856        -0.714433        -1.024577
 H         5.175771         1.010925        -0.747974
 H         2.268868         1.963685        -1.259943
 H         2.033324         0.565748        -2.310410
 H         0.370901         0.203505         0.068487
 H         1.916285        -1.735114        -0.864147
 H         1.543436        -0.442283         2.568179
 H         3.277936        -0.509765         2.865589
 H         2.670236         2.597437         0.773358
