19
Iteration:  4993
 C         4.758031         0.444363        -0.434594
 C         3.334879         0.291512        -0.219982
 C         2.355867         1.127789        -0.954988
 C         1.434361         0.310775        -0.084819
 C         2.254210        -0.905414        -0.368659
 O         2.263340        -1.690138         0.802863
 C         2.557550        -0.811765         1.931477
 C         2.489599         0.527925         1.108786
 O         2.620730         1.699894         1.744064
 H         5.061051         0.021873        -1.397714
 H         4.949655         1.483429        -0.637468
 H         5.541899         0.171832         0.340347
 H         2.260427         2.208383        -0.623979
 H         2.141532         1.149211        -2.076963
 H         0.343690         0.352206         0.102857
 H         2.032922        -1.551754        -1.269194
 H         1.827317        -0.860861         2.771453
 H         3.566344        -0.851337         2.295719
 H         3.014195         2.230229         0.994844
