19
Iteration:  3463charge 0 multiplicity 1
 C         4.820418         0.236520        -0.360738
 C         3.263245         0.284384        -0.333496
 C         2.272921         1.301496        -0.966779
 C         1.393003         0.395457        -0.080238
 C         2.319507        -0.944956        -0.370237
 O         2.398402        -1.723237         0.825180
 C         2.472081        -0.745166         1.927808
 C         2.426974         0.518699         0.999311
 O         2.707544         1.735510         1.693325
 H         5.230224        -0.385956        -1.191833
 H         5.241472         1.209752        -0.302787
 H         5.244608        -0.149849         0.604819
 H         2.334021         2.362592        -0.649381
 H         2.041681         1.422057        -1.998210
 H         0.339491         0.463762         0.273062
 H         2.339704        -1.596035        -1.187010
 H         1.700873        -0.903902         2.678643
 H         3.469752        -0.837692         2.459719
 H         1.853311         1.998684         2.189550
