19
Iteration:  4385charge 0 multiplicity 1
 C         4.831070         0.164000        -0.493909
 C         3.350770         0.331717        -0.220075
 C         2.362692         1.042219        -1.131918
 C         1.471327         0.475530        -0.057136
 C         2.224537        -0.808043        -0.341644
 O         2.429706        -1.671005         0.728590
 C         2.519227        -0.736890         1.855538
 C         2.442921         0.596071         1.115584
 O         2.464057         1.692121         2.008739
 H         5.174485        -0.431745        -1.301063
 H         5.323760         1.198690        -0.658305
 H         5.347979        -0.279141         0.418757
 H         2.388328         2.133563        -1.123717
 H         2.147740         0.512300        -2.042845
 H         0.388016         0.673245        -0.150239
 H         2.041408        -1.217881        -1.269869
 H         1.799258        -0.904333         2.657055
 H         3.516613        -0.955568         2.283966
 H         2.242537         2.497404         1.652173
