19
Iteration:   324charge 0 multiplicity 1
 C         4.848506         0.173301        -0.396212
 C         3.302773         0.157906        -0.284467
 C         2.253401         0.833152        -1.191076
 C         1.373342         0.209240        -0.100770
 C         2.343109        -1.021441        -0.131944
 O         2.453342        -1.657414         1.242945
 C         2.403249        -0.403581         2.057828
 C         2.430349         0.680622         0.946544
 O         2.667354         1.977526         1.382494
 H         5.436703        -0.558622         0.205746
 H         5.123183        -0.057626        -1.484578
 H         5.390779         1.128387        -0.218441
 H         2.314837         2.001574        -1.299223
 H         2.227147         0.482799        -2.243092
 H         0.283728         0.222281        -0.178980
 H         2.134566        -1.668988        -0.936609
 H         1.424506        -0.338619         2.569782
 H         3.195470        -0.294157         2.786952
 H         2.189991         2.751762         0.973417
