19
Iteration:  4577
 C         4.792989         0.223047        -0.331217
 C         3.284827         0.328874        -0.252348
 C         2.270594         1.253983        -0.961454
 C         1.426551         0.292258        -0.092613
 C         2.291282        -0.912748        -0.415225
 O         2.396488        -1.704384         0.772228
 C         2.530941        -0.722592         1.896565
 C         2.473712         0.536770         1.052944
 O         2.550513         1.766188         1.791071
 H         5.169607        -0.135921        -1.382842
 H         5.319053         1.163381        -0.272687
 H         5.076039        -0.566452         0.403771
 H         2.317129         2.278493        -0.800632
 H         2.076844         1.129426        -2.016921
 H         0.393979         0.440540         0.086571
 H         2.274196        -1.504724        -1.347219
 H         1.641083        -0.893206         2.497179
 H         3.414970        -0.829138         2.508552
 H         3.410864         2.272952         1.524322
