19
Iteration:  4765charge 0 multiplicity 1
 C         4.799539         0.299367        -0.387218
 C         3.283493         0.281428        -0.189428
 C         2.280251         1.272207        -1.011197
 C         1.336197         0.316217        -0.233860
 C         2.261196        -0.953576        -0.380514
 O         2.383096        -1.691547         0.891921
 C         2.620960        -0.751149         1.892776
 C         2.462653         0.542313         1.091800
 O         2.612771         1.764334         1.796549
 H         5.012235         0.938643        -1.227486
 H         5.384471         0.619514         0.531232
 H         4.949554        -0.793419        -0.698991
 H         1.936032         2.250907        -0.642823
 H         2.236462         1.124275        -2.092053
 H         0.225184         0.299401        -0.087263
 H         2.374697        -1.660463        -1.219884
 H         1.853628        -0.884255         2.698696
 H         3.597337        -1.048089         2.300726
 H         3.065550         2.248546         1.012982
