19
Iteration:  2119
 C         4.876982         0.179199        -0.390613
 C         3.347301         0.157085        -0.290619
 C         2.305838         0.822134        -1.168439
 C         1.404709         0.279491         0.005387
 C         2.263980        -1.003291        -0.124867
 O         2.359006        -1.690508         1.136093
 C         2.562571        -0.459105         1.990392
 C         2.450485         0.670895         1.000779
 O         2.532014         2.000914         1.397429
 H         5.394552        -0.575631         0.180090
 H         5.039807        -0.025361        -1.387799
 H         5.275796         1.184723        -0.138251
 H         2.155282         2.016754        -1.220722
 H         2.264550         0.711463        -2.256019
 H         0.316860         0.153512         0.123793
 H         2.147224        -1.635018        -0.956763
 H         1.810321        -0.367418         2.777016
 H         3.579191        -0.398262         2.423142
 H         2.318987         2.553031         0.634363
