19
Iteration:  3942charge 0 multiplicity 1
 C         4.686538         0.282053        -0.260752
 C         3.193331         0.325252        -0.212214
 C         2.387573         1.135153        -1.213920
 C         1.373616         0.373924        -0.109571
 C         2.239062        -0.884340        -0.297040
 O         2.427892        -1.716347         0.794835
 C         2.536527        -0.751137         1.845136
 C         2.359146         0.617910         1.038757
 O         2.785030         1.670722         1.866349
 H         5.155364         0.937970        -1.078080
 H         5.075068         0.767456         0.624613
 H         5.133069        -0.722139        -0.466267
 H         2.460226         2.205058        -1.285342
 H         2.596242         0.782460        -2.311994
 H         0.300098         0.577331        -0.007262
 H         2.062839        -1.452691        -1.248393
 H         1.752955        -1.031807         2.585769
 H         3.517631        -0.730766         2.359265
 H         2.335709         2.545418         1.740175
