19
Iteration:  4717
 C         4.822498         0.158959        -0.390970
 C         3.290381         0.390439        -0.315511
 C         2.248701         1.094340        -1.134389
 C         1.376927         0.471050        -0.025067
 C         2.201660        -0.849106        -0.322185
 O         2.496581        -1.722612         0.753493
 C         2.623006        -0.787676         1.912783
 C         2.562781         0.637836         1.063167
 O         2.509091         1.738178         1.935896
 H         5.285079         0.378863        -1.391651
 H         5.242483         0.835876         0.292761
 H         4.936385        -0.838690        -0.062453
 H         2.423782         2.171743        -1.243301
 H         2.160321         0.636556        -2.185845
 H         0.331244         0.725232        -0.070476
 H         2.034327        -1.365959        -1.280043
 H         1.729793        -1.013726         2.581219
 H         3.567859        -1.085848         2.454036
 H         1.795114         2.260017         1.401109
