19
Iteration:  1237
 C         4.796549         0.152409        -0.436019
 C         3.360391         0.179627        -0.216512
 C         2.268042         0.912222        -1.191863
 C         1.448229         0.268242        -0.138539
 C         2.282452        -1.023573        -0.089005
 O         2.461441        -1.654610         1.216038
 C         2.490161        -0.442059         2.017542
 C         2.493643         0.657409         0.974429
 O         2.483600         1.986717         1.398669
 H         5.213757        -0.846254        -0.083231
 H         5.068014         0.262853        -1.522242
 H         5.329883         1.003861        -0.074503
 H         2.192294         2.003762        -1.216627
 H         2.357445         0.298594        -2.218264
 H         0.277495         0.219352         0.118120
 H         2.217484        -1.971317        -0.784733
 H         1.606297        -0.416269         2.697149
 H         3.449535        -0.539575         2.561359
 H         2.595582         2.568762         0.628446
