19
Iteration:  1860charge 0 multiplicity 1
 C         4.871339         0.206113        -0.409667
 C         3.309793         0.210344        -0.326295
 C         2.312965         0.804758        -1.254746
 C         1.385824         0.231758        -0.169435
 C         2.220862        -1.014964        -0.112074
 O         2.437348        -1.619603         1.212662
 C         2.491470        -0.431777         1.995254
 C         2.480963         0.660840         0.963636
 O         2.592059         1.938456         1.542622
 H         5.319092        -0.285124         0.408991
 H         5.335589        -0.046315        -1.373704
 H         5.122544         1.189071        -0.284150
 H         2.388080         1.945263        -1.239604
 H         1.983256         0.392952        -2.167018
 H         0.358658         0.233238         0.054105
 H         1.883800        -1.828625        -0.884158
 H         1.703807        -0.440283         2.729111
 H         3.466993        -0.436893         2.480902
 H         2.196261         2.514175         0.930292
