19
Iteration:  3299charge 0 multiplicity 1
 C         4.764513         0.242807        -0.399458
 C         3.268870         0.320664        -0.314185
 C         2.188455         1.149538        -1.132182
 C         1.330596         0.301601        -0.106951
 C         2.259281        -0.893359        -0.339597
 O         2.456017        -1.702236         0.879059
 C         2.530899        -0.647400         1.819993
 C         2.493845         0.586315         1.079235
 O         2.673606         1.682194         1.933295
 H         5.233065         0.755774        -1.335921
 H         5.292632         0.773135         0.467376
 H         5.250391        -0.825558        -0.342947
 H         2.167174         2.282166        -1.006104
 H         2.118863         0.940544        -2.214458
 H         0.144250         0.405071        -0.101960
 H         2.152641        -1.278765        -1.326544
 H         1.849392        -0.740914         2.701738
 H         3.578019        -0.681575         2.357195
 H         3.202116         2.302861         1.501626
