19
Iteration:  1582
 C         4.820718         0.112623        -0.366950
 C         3.353262         0.165450        -0.289608
 C         2.248456         0.893305        -1.139904
 C         1.396964         0.174113        -0.097237
 C         2.302349        -1.035999        -0.175126
 O         2.532133        -1.611305         1.187052
 C         2.414338        -0.388354         1.971191
 C         2.446759         0.674793         0.940883
 O         2.588414         1.979791         1.465554
 H         5.385360        -0.117096         0.508496
 H         5.077235        -0.550524        -1.142680
 H         5.221891         1.066513        -0.777416
 H         2.200301         2.008750        -1.067459
 H         2.252290         0.572098        -2.267980
 H         0.251622         0.311935         0.202977
 H         2.127609        -1.694399        -1.108793
 H         1.451067        -0.523951         2.485569
 H         3.223113        -0.438662         2.752498
 H         2.197732         2.662707         0.833642
