19
Iteration:  4023
 C         4.760793         0.192763        -0.481129
 C         3.329010         0.287313        -0.133545
 C         2.421835         1.209525        -0.988530
 C         1.419843         0.347324        -0.101207
 C         2.331607        -0.819820        -0.395752
 O         2.453828        -1.730167         0.797479
 C         2.443667        -0.788360         1.861595
 C         2.328656         0.563824         1.132656
 O         2.531565         1.764172         1.853765
 H         4.754168        -0.186633        -1.540479
 H         5.398073         1.124815        -0.423131
 H         5.238478        -0.579894         0.149224
 H         2.635200         2.355296        -0.857546
 H         2.279895         1.040824        -2.068616
 H         0.325495         0.363779        -0.148985
 H         2.152955        -1.230213        -1.416512
 H         1.720182        -0.869677         2.702952
 H         3.497801        -0.574695         2.253265
 H         2.904981         2.436710         1.184479
