19
Iteration:  1704charge 0 multiplicity 1
 C         4.787834         0.202342        -0.358545
 C         3.266826         0.128103        -0.314628
 C         2.222105         0.859337        -1.277409
 C         1.371442         0.213024        -0.136892
 C         2.351448        -0.985055        -0.109232
 O         2.541619        -1.590172         1.156090
 C         2.390222        -0.451670         2.061019
 C         2.438134         0.646044         0.990179
 O         2.670118         1.940345         1.479062
 H         5.251616        -0.683553         0.070013
 H         5.165607         0.286339        -1.316343
 H         5.172989         1.062192         0.168837
 H         2.238630         2.014060        -1.384456
 H         2.157936         0.321198        -2.304124
 H         0.329642         0.428008         0.027281
 H         2.195744        -1.825705        -0.706330
 H         1.420810        -0.301545         2.456782
 H         3.183751        -0.536575         2.819992
 H         2.669042         2.630626         0.730269
