19
Iteration:   412charge 0 multiplicity 1
 C         4.865404         0.056180        -0.313950
 C         3.288913         0.199539        -0.285450
 C         2.314443         0.744110        -1.312693
 C         1.351586         0.158298        -0.130536
 C         2.279679        -0.976417        -0.110587
 O         2.372828        -1.523504         1.157613
 C         2.662391        -0.409678         1.931052
 C         2.473573         0.733624         0.971557
 O         2.442683         1.990649         1.576528
 H         5.182357        -0.448433         0.583551
 H         5.098344        -0.454124        -1.278858
 H         5.255861         1.101722        -0.327885
 H         2.413259         1.892070        -1.475281
 H         2.362863         0.401190        -2.342672
 H         0.262069         0.336244        -0.074562
 H         2.276690        -1.724951        -0.825256
 H         1.959902        -0.387830         2.778277
 H         3.673050        -0.503820         2.337291
 H         2.729295         2.594945         0.868399
