19
Iteration:  1823charge 0 multiplicity 1
 C         4.820937         0.081457        -0.454851
 C         3.345556         0.255217        -0.206998
 C         2.223256         0.821216        -1.260818
 C         1.329772         0.225576        -0.140427
 C         2.359408        -0.974807        -0.110113
 O         2.547032        -1.597122         1.140739
 C         2.390796        -0.457090         1.965349
 C         2.429775         0.699009         0.943209
 O         2.610631         1.968125         1.613833
 H         5.233689        -0.265082         0.556470
 H         5.015725        -0.772143        -1.080262
 H         5.444348         0.993876        -0.768150
 H         2.228911         1.811749        -1.468150
 H         2.035330         0.275286        -2.288785
 H         0.216050         0.266991        -0.110695
 H         2.413686        -1.600562        -0.948157
 H         1.511025        -0.477380         2.644313
 H         3.322588        -0.251145         2.593263
 H         2.370885         2.624626         0.956185
