19
Iteration:   236charge 0 multiplicity 1
 C         4.789963         0.064063        -0.405375
 C         3.305001         0.187191        -0.296860
 C         2.225370         0.953280        -1.179741
 C         1.446734         0.236232        -0.070154
 C         2.386632        -1.079924        -0.109655
 O         2.472389        -1.638459         1.216798
 C         2.447066        -0.423838         2.033048
 C         2.446501         0.696720         0.947764
 O         2.492609         2.013470         1.353590
 H         5.219032        -0.424552         0.552393
 H         5.010201        -0.678280        -1.244097
 H         5.204314         1.091477        -0.635678
 H         2.329921         2.121728        -1.245891
 H         2.260486         0.614533        -2.243969
 H         0.360611         0.374011         0.020922
 H         2.362794        -1.931983        -0.790607
 H         1.574682        -0.442045         2.719379
 H         3.399393        -0.425427         2.616870
 H         3.368225         2.443974         1.071611
