19
Iteration:  1373charge 0 multiplicity 1
 C         4.848230         0.186478        -0.424982
 C         3.337867         0.211394        -0.317654
 C         2.297641         0.794913        -1.249266
 C         1.346647         0.126659        -0.101742
 C         2.307721        -0.977874        -0.089157
 O         2.330116        -1.539779         1.155874
 C         2.537028        -0.473766         2.011303
 C         2.515282         0.654937         0.987254
 O         2.530799         1.955368         1.527344
 H         5.368465         0.109024         0.555309
 H         5.282230        -0.469973        -1.216343
 H         5.053728         1.302509        -0.817491
 H         2.408832         1.970736        -1.250879
 H         2.436990         0.398438        -2.199427
 H         0.215626         0.186622        -0.127586
 H         2.344457        -1.834654        -0.697518
 H         1.803412        -0.434491         2.791194
 H         3.544217        -0.345495         2.436209
 H         2.578076         2.539084         0.787080
