19
Iteration:  1489
 C         4.842929         0.160681        -0.319540
 C         3.316665         0.201103        -0.308822
 C         2.262451         0.794094        -1.196315
 C         1.348623         0.279814        -0.090691
 C         2.301220        -1.019870        -0.119004
 O         2.416136        -1.585988         1.190227
 C         2.585188        -0.401656         1.980182
 C         2.521270         0.671579         0.875317
 O         2.508028         1.904742         1.480370
 H         5.287654        -0.789583         0.039552
 H         5.027456         0.217858        -1.423414
 H         5.356166         0.974627         0.119199
 H         2.570110         1.843893        -1.354280
 H         2.087903         0.201354        -2.244864
 H         0.314167         0.315723        -0.004842
 H         2.122950        -1.769108        -0.840942
 H         1.652794        -0.385466         2.640449
 H         3.493031        -0.211613         2.586037
 H         2.263657         2.618851         0.879991
