19
Iteration:  4721charge 0 multiplicity 1
 C         4.797971         0.180368        -0.381317
 C         3.287147         0.386055        -0.309900
 C         2.222348         1.100977        -1.142532
 C         1.392073         0.472641        -0.054196
 C         2.234319        -0.867228        -0.353506
 O         2.467759        -1.704867         0.770733
 C         2.652255        -0.798555         1.877483
 C         2.571895         0.602382         1.061398
 O         2.494846         1.744717         1.949545
 H         5.326553         0.337565        -1.338700
 H         5.352450         0.773080         0.418901
 H         4.973717        -0.936088        -0.153149
 H         2.442867         2.157536        -1.170415
 H         2.148514         0.570887        -2.076834
 H         0.351690         0.829419         0.128903
 H         1.994021        -1.487354        -1.213954
 H         1.766111        -0.865837         2.567299
 H         3.560641        -0.901613         2.480043
 H         1.891491         2.308141         1.440160
