19
Iteration:   287
 C         4.842331         0.195653        -0.341331
 C         3.339749         0.197029        -0.314898
 C         2.290100         0.737170        -1.327916
 C         1.385808         0.283940        -0.159984
 C         2.298853        -0.963739        -0.136098
 O         2.310981        -1.670621         1.283412
 C         2.646909        -0.372996         2.013712
 C         2.415051         0.664110         0.895794
 O         2.572715         1.938435         1.538374
 H         5.191299        -0.349615         0.535263
 H         5.205473        -0.273388        -1.203420
 H         5.095618         1.191511        -0.299874
 H         2.344998         1.730368        -1.421273
 H         2.021394         0.305209        -2.306705
 H         0.261195         0.263149        -0.096188
 H         2.076873        -1.773110        -0.959742
 H         1.933161        -0.083888         2.795075
 H         3.656769        -0.399573         2.443455
 H         2.549401         2.554056         0.796474
