19
Iteration:  2447charge 0 multiplicity 1
 C         4.745729         0.187708        -0.368117
 C         3.341325         0.217752        -0.231716
 C         2.283751         0.910098        -1.115291
 C         1.373360         0.245504        -0.002271
 C         2.414161        -1.010600        -0.238125
 O         2.447482        -1.674100         1.064067
 C         2.407207        -0.561802         1.964134
 C         2.425110         0.665452         1.045798
 O         2.662201         2.020790         1.452527
 H         4.988092         1.039466        -1.005434
 H         5.337664         0.269272         0.563484
 H         4.993282        -0.649683        -1.055798
 H         2.262151         2.038102        -1.074716
 H         2.036640         0.542195        -2.276729
 H         0.288969         0.317891        -0.027788
 H         2.163659        -1.823381        -0.970016
 H         1.509253        -0.580875         2.624650
 H         3.203178        -0.652158         2.665032
 H         2.684892         2.449215         0.618903
