19
Iteration:  2449charge 0 multiplicity 1
 C         4.760876         0.197302        -0.377804
 C         3.323628         0.196872        -0.238710
 C         2.271507         0.935214        -1.111206
 C         1.373098         0.246654        -0.023795
 C         2.419938        -1.030026        -0.236171
 O         2.453553        -1.672492         1.071753
 C         2.401742        -0.552351         1.971377
 C         2.431967         0.652548         1.041511
 O         2.651630         2.023171         1.457212
 H         5.012519         0.987735        -1.046277
 H         5.430243         0.202974         0.561448
 H         5.029893        -0.679709        -0.974171
 H         2.207647         2.087754        -1.133560
 H         2.073484         0.599577        -2.150862
 H         0.346290         0.347202         0.019722
 H         2.110979        -1.872975        -1.027639
 H         1.496356        -0.593631         2.626983
 H         3.203535        -0.696264         2.714834
 H         2.722220         2.598199         0.622804
