19
Iteration:  4657charge 0 multiplicity 1
 C         4.848042         0.345744        -0.442499
 C         3.364240         0.344683        -0.237403
 C         2.239216         1.299515        -0.954010
 C         1.385472         0.309075        -0.068346
 C         2.316847        -0.946412        -0.455395
 O         2.319517        -1.735528         0.892880
 C         2.447534        -0.789417         1.903738
 C         2.485995         0.514475         1.049115
 O         2.672269         1.749549         1.677518
 H         5.113908        -0.305406        -1.251711
 H         5.242527         1.396253        -0.650628
 H         5.540904         0.084505         0.417038
 H         2.385424         2.324810        -0.512098
 H         2.312710         1.197484        -2.030421
 H         0.251015         0.215755         0.041543
 H         2.065535        -1.512151        -1.351746
 H         1.642420        -1.013957         2.583910
 H         3.398624        -0.992987         2.435664
 H         2.233788         1.789225         2.614773
