19
Iteration:  1511
 C         4.810180         0.185293        -0.402181
 C         3.315959         0.164977        -0.312526
 C         2.289555         0.797101        -1.365569
 C         1.405140         0.183325        -0.174974
 C         2.329970        -1.046868        -0.122015
 O         2.323232        -1.567652         1.213958
 C         2.613011        -0.477212         2.025717
 C         2.430102         0.696379         0.969277
 O         2.545989         1.999003         1.603150
 H         5.261204        -0.623883         0.234494
 H         5.328559         0.149415        -1.411814
 H         5.161862         1.057057         0.116208
 H         2.105797         1.889872        -1.384371
 H         2.206126         0.304604        -2.490909
 H         0.371684         0.167744        -0.069971
 H         2.295151        -1.825655        -0.809892
 H         1.895865        -0.349006         2.920750
 H         3.594640        -0.161750         2.393816
 H         2.641608         2.798491         0.996643
