19
Iteration:  3092charge 0 multiplicity 1
 C         4.807808         0.282695        -0.488784
 C         3.365568         0.254322        -0.317337
 C         2.196955         1.110340        -1.032044
 C         1.405320         0.285949        -0.057884
 C         2.345881        -0.983480        -0.325826
 O         2.408307        -1.660773         0.935911
 C         2.425596        -0.641884         1.941581
 C         2.448959         0.560077         1.116482
 O         2.668098         1.786885         1.701107
 H         5.269327        -0.453110         0.169120
 H         5.086905         0.222512        -1.574248
 H         5.202489         1.286152        -0.175452
 H         2.363240         2.253935        -0.813744
 H         2.160590         0.921733        -2.126619
 H         0.202264         0.285548        -0.047870
 H         1.981032        -1.545737        -1.171761
 H         1.548876        -0.884396         2.625377
 H         3.293171        -0.811937         2.616873
 H         2.823224         2.627710         1.248761
