19
Iteration:  2505charge 0 multiplicity 1
 C         4.808630         0.076895        -0.451993
 C         3.306419         0.237170        -0.258496
 C         2.346672         0.821511        -1.310606
 C         1.362351         0.273918        -0.163343
 C         2.324563        -0.929505        -0.144831
 O         2.362886        -1.661151         1.081448
 C         2.624230        -0.508926         1.939616
 C         2.463152         0.727981         1.055248
 O         2.479747         1.964487         1.746248
 H         5.119922         0.764340        -1.228631
 H         5.400286         0.538522         0.409727
 H         5.277526        -0.884977        -0.644104
 H         2.334047         1.983272        -1.297097
 H         2.108151         0.399757        -2.262888
 H         0.301844         0.360651        -0.161867
 H         2.366017        -1.631010        -1.125598
 H         1.922654        -0.529582         2.799329
 H         3.713778        -0.626745         2.173123
 H         2.238617         2.728553         1.094547
