19
Iteration:  4821
 C         4.792981         0.401059        -0.416211
 C         3.332033         0.339907        -0.314722
 C         2.194292         1.110764        -1.177546
 C         1.366563         0.376337        -0.109825
 C         2.296568        -0.880876        -0.278126
 O         2.417207        -1.803061         0.884914
 C         2.434112        -0.709973         1.904972
 C         2.554384         0.606785         0.982820
 O         2.673376         1.660892         1.924960
 H         5.185917         1.018655        -1.214473
 H         5.302405         0.619588         0.597446
 H         5.237646        -0.626245        -0.632390
 H         2.178966         2.234333        -1.094536
 H         2.052149         0.828745        -2.215136
 H         0.266585         0.179143         0.134321
 H         2.052298        -1.425944        -1.221460
 H         1.499276        -0.675488         2.512455
 H         3.255116        -0.832244         2.633439
 H         2.975455         2.360159         1.424327
