19
Iteration:  3589
 C         4.762340         0.184310        -0.344016
 C         3.330654         0.309124        -0.221383
 C         2.268757         1.138801        -1.043340
 C         1.371682         0.326720        -0.106683
 C         2.297907        -0.838661        -0.306161
 O         2.371212        -1.674348         0.795601
 C         2.504580        -0.708754         1.858124
 C         2.490009         0.586327         1.051350
 O         2.657812         1.744616         1.830145
 H         5.193787         0.722703        -1.201127
 H         5.371307         0.506219         0.571998
 H         5.190799        -0.795513        -0.584736
 H         2.234639         2.173047        -0.932647
 H         2.184616         0.736942        -2.083220
 H         0.272460         0.293277        -0.150388
 H         2.260116        -1.297396        -1.313516
 H         1.500581        -0.727541         2.329013
 H         3.416976        -0.927362         2.488792
 H         2.702349         2.557189         1.189069
