19
Iteration:  4206charge 0 multiplicity 1
 C         4.858817         0.125397        -0.448348
 C         3.342343         0.371841        -0.266436
 C         2.277355         1.287272        -0.997981
 C         1.502964         0.353719        -0.085188
 C         2.317492        -0.915877        -0.380083
 O         2.384405        -1.762450         0.854626
 C         2.434954        -0.684588         1.880733
 C         2.548668         0.561732         1.096074
 O         2.459080         1.731840         1.801892
 H         5.120751         0.681368        -1.409030
 H         5.414783         0.642353         0.383258
 H         5.205810        -0.907312        -0.526620
 H         2.242845         2.329919        -0.705978
 H         2.181946         1.142718        -2.118933
 H         0.426933         0.449512         0.026498
 H         1.902209        -1.603139        -1.213965
 H         1.540537        -0.570970         2.490688
 H         3.272518        -0.980835         2.490405
 H         2.906008         2.448208         1.470396
