19
Iteration:  4848charge 0 multiplicity 1
 C         4.758674         0.253967        -0.421852
 C         3.316514         0.233414        -0.189618
 C         2.274845         1.124326        -1.059176
 C         1.334566         0.341778        -0.184622
 C         2.335062        -0.875169        -0.354185
 O         2.380899        -1.637313         0.810054
 C         2.589037        -0.675007         1.917169
 C         2.393347         0.582462         1.052409
 O         2.654248         1.693514         1.910695
 H         4.930997         0.900266        -1.334283
 H         5.363563         0.692881         0.339628
 H         5.257129        -0.656013        -0.636282
 H         2.299996         2.198001        -1.042165
 H         2.200774         0.909458        -2.163019
 H         0.308430         0.213143        -0.032382
 H         2.168878        -1.472254        -1.232017
 H         2.077090        -0.982908         2.814023
 H         3.664369        -0.579039         2.114078
 H         2.243820         2.385462         1.500123
