19
Iteration:  4443charge 0 multiplicity 1
 C         4.889326         0.294167        -0.265853
 C         3.269242         0.231824        -0.260191
 C         2.227567         1.307856        -0.935578
 C         1.352987         0.358787        -0.023048
 C         2.305563        -0.915735        -0.403826
 O         2.371641        -1.750156         0.814939
 C         2.469560        -0.791297         1.867064
 C         2.430705         0.528509         1.010848
 O         2.738254         1.745069         1.637636
 H         5.422016         0.536765        -1.294910
 H         5.213936         1.075843         0.556596
 H         5.419066        -0.604903         0.170897
 H         2.455316         2.373467        -0.680319
 H         2.094074         1.412046        -2.023437
 H         0.232401         0.209588         0.087531
 H         2.144548        -1.604348        -1.300084
 H         1.587687        -0.629461         2.529416
 H         3.384938        -1.035225         2.408021
 H         2.054901         2.510361         1.398584
