19
Iteration:   674
 C         4.837065         0.199755        -0.417195
 C         3.317670         0.152288        -0.273782
 C         2.269292         0.918599        -1.197584
 C         1.382154         0.181225        -0.069544
 C         2.394346        -1.011603        -0.094468
 O         2.367857        -1.611566         1.172653
 C         2.555180        -0.451195         1.984896
 C         2.406603         0.679826         0.947927
 O         2.518801         1.945523         1.464123
 H         5.369247        -0.055922         0.469078
 H         5.000993        -0.584193        -1.153847
 H         5.283134         1.108537        -0.827005
 H         2.413468         1.919467        -1.176525
 H         2.237670         0.469014        -2.259451
 H         0.262783         0.402362         0.130377
 H         2.358361        -1.727919        -0.850256
 H         1.691840        -0.431332         2.698940
 H         3.487063        -0.557501         2.574326
 H         2.857778         2.433478         0.623585
