19
Iteration:  3194
 C         4.760376         0.149523        -0.512456
 C         3.298986         0.316908        -0.130829
 C         2.202453         1.104455        -1.033671
 C         1.371065         0.315973        -0.119841
 C         2.341376        -0.859707        -0.305498
 O         2.479076        -1.689737         0.839171
 C         2.541752        -0.706400         1.906538
 C         2.352314         0.585070         1.078019
 O         2.718167         1.853985         1.756015
 H         5.446178         0.665240         0.197075
 H         4.932588        -0.917789        -0.296700
 H         5.035357         0.451628        -1.496461
 H         2.085202         2.222689        -1.075340
 H         2.154820         0.767177        -2.091869
 H         0.371537         0.194574        -0.160777
 H         2.343622        -1.305735        -1.337283
 H         1.675131        -0.799228         2.572218
 H         3.533455        -0.662625         2.322341
 H         1.957596         2.230676         2.232206
