19
Iteration:  2725charge 0 multiplicity 1
 C         4.803004         0.158183        -0.362104
 C         3.276288         0.224884        -0.331611
 C         2.193364         0.937744        -1.204102
 C         1.325582         0.349281        -0.085409
 C         2.339872        -0.920990        -0.136620
 O         2.493808        -1.683466         1.023494
 C         2.511375        -0.519894         1.866714
 C         2.374263         0.671212         0.964079
 O         2.621192         1.890368         1.673970
 H         5.208814        -0.787035        -0.014322
 H         5.225109         0.252181        -1.363193
 H         5.373947         0.863295         0.229984
 H         2.207434         2.085228        -1.333575
 H         1.922150         0.565129        -2.162440
 H         0.231730         0.064806        -0.149809
 H         2.381524        -1.688808        -1.143320
 H         1.851529        -0.532877         2.742125
 H         3.453103        -0.407355         2.301620
 H         3.516769         1.819342         2.176245
