19
Iteration:   415
 C         4.857964         0.063355        -0.310830
 C         3.321773         0.187750        -0.289098
 C         2.307430         0.729709        -1.293443
 C         1.339392         0.165275        -0.107874
 C         2.273189        -1.009105        -0.130223
 O         2.380473        -1.522658         1.149235
 C         2.645136        -0.399461         1.932210
 C         2.451257         0.758164         0.960701
 O         2.455468         1.993853         1.575394
 H         5.203004        -0.434597         0.604991
 H         5.063886        -0.458448        -1.244689
 H         5.340188         1.172308        -0.357861
 H         2.401695         1.913612        -1.413687
 H         2.374744         0.452538        -2.340408
 H         0.316963         0.389849        -0.061796
 H         2.302371        -1.799352        -0.894225
 H         1.957671        -0.470814         2.781313
 H         3.666540        -0.525945         2.363808
 H         2.737198         2.622383         0.812956
