19
Iteration:  2312charge 0 multiplicity 1
 C         4.857535         0.122036        -0.450276
 C         3.296498         0.227026        -0.299061
 C         2.246437         0.953247        -1.262053
 C         1.364884         0.235703        -0.132159
 C         2.312451        -1.018602        -0.182848
 O         2.506212        -1.628340         1.236224
 C         2.468871        -0.425147         1.951684
 C         2.425284         0.663127         0.989895
 O         2.584500         1.883875         1.584574
 H         5.320050         0.310654         0.572386
 H         5.142561        -0.862396        -0.854183
 H         5.391214         0.784679        -1.171902
 H         2.183977         2.008877        -1.175084
 H         2.097360         0.477690        -2.400710
 H         0.245623         0.434436         0.160581
 H         2.407441        -1.801562        -0.834569
 H         1.522644        -0.390758         2.550326
 H         3.185876        -0.288783         2.735796
 H         2.494788         2.493448         0.884133
