19
Iteration:  1543charge 0 multiplicity 1
 C         4.799569         0.197157        -0.397138
 C         3.302703         0.245592        -0.208814
 C         2.303817         0.819882        -1.231435
 C         1.430505         0.232678        -0.088059
 C         2.319173        -1.003831        -0.146268
 O         2.362023        -1.651402         1.184403
 C         2.540010        -0.434781         2.012975
 C         2.465483         0.654551         0.945919
 O         2.546373         1.930499         1.453900
 H         5.295249        -0.407226         0.438868
 H         5.071536        -0.223398        -1.436048
 H         5.114306         1.250887        -0.412497
 H         2.137657         1.903850        -1.308388
 H         2.317038         0.344079        -2.228467
 H         0.441141         0.311777         0.042451
 H         2.336360        -1.767103        -0.866820
 H         1.651502        -0.480513         2.697155
 H         3.430500        -0.076300         2.507977
 H         2.834501         2.486084         0.688161
