19
Iteration:  4045charge 0 multiplicity 1
 C         4.864563         0.146566        -0.435839
 C         3.371769         0.341550        -0.295318
 C         2.249588         1.188229        -1.104076
 C         1.388272         0.397918        -0.089134
 C         2.366376        -0.863938        -0.323063
 O         2.409608        -1.657364         0.767102
 C         2.426020        -0.761934         1.877955
 C         2.539929         0.597654         1.055085
 O         2.498901         1.670551         1.970752
 H         5.101621        -0.516677        -1.306583
 H         5.449257         1.091209        -0.660332
 H         5.289764        -0.331224         0.466306
 H         2.039581         2.300902        -0.883350
 H         2.106942         1.038455        -2.190547
 H         0.307222         0.464932         0.182359
 H         2.346667        -1.479881        -1.248725
 H         1.475410        -0.585697         2.431423
 H         3.296692        -0.911955         2.612661
 H         2.675560         2.503483         1.540895
