19
Iteration:  3102charge 0 multiplicity 1
 C         4.822684         0.305067        -0.493335
 C         3.285595         0.265229        -0.204943
 C         2.258391         1.131845        -1.004713
 C         1.373176         0.278441        -0.076181
 C         2.352825        -0.897561        -0.287083
 O         2.366605        -1.733925         0.918693
 C         2.478496        -0.711498         1.939870
 C         2.428306         0.594732         1.061195
 O         2.651757         1.824240         1.665915
 H         5.369044        -0.372957         0.143649
 H         4.984550        -0.150393        -1.468120
 H         5.312456         1.298910        -0.396505
 H         2.260309         2.223246        -0.799299
 H         2.095475         1.019488        -2.081897
 H         0.228027         0.204274         0.166283
 H         2.455158        -1.573749        -1.103516
 H         1.599837        -0.750278         2.601464
 H         3.449178        -0.821249         2.431438
 H         3.058072         2.222748         0.913658
