19
Iteration:   452
 C         4.782085         0.196109        -0.361176
 C         3.301102         0.205509        -0.278839
 C         2.312716         0.885221        -1.243604
 C         1.379256         0.237009        -0.102933
 C         2.280612        -1.014437        -0.145269
 O         2.471726        -1.552193         1.197774
 C         2.418523        -0.517314         2.121561
 C         2.534478         0.618799         0.949979
 O         2.620203         1.937043         1.361673
 H         5.263664        -0.174599         0.598382
 H         5.121637        -0.549532        -1.119524
 H         5.224393         1.091050        -0.610347
 H         2.224213         1.914520        -1.151945
 H         2.296477         0.671441        -2.376717
 H         0.246567         0.219958         0.123513
 H         2.342555        -1.892857        -0.931579
 H         1.383214        -0.441192         2.551503
 H         3.157233        -0.618594         2.945626
 H         2.273608         2.639066         0.719165
