19
Iteration:  1611
 C         4.786514         0.078334        -0.383497
 C         3.310432         0.213736        -0.317292
 C         2.275182         0.818146        -1.268307
 C         1.405925         0.244310        -0.218610
 C         2.388842        -0.953598        -0.191786
 O         2.431138        -1.592904         1.201719
 C         2.571417        -0.448287         2.075677
 C         2.405602         0.693123         1.005085
 O         2.537815         1.981452         1.575416
 H         5.206892        -0.305685         0.572571
 H         5.078144        -0.635429        -1.251684
 H         5.235259         1.030253        -0.668956
 H         2.170209         1.838472        -1.511151
 H         2.300813         0.149432        -2.279259
 H         0.312778         0.380748        -0.074648
 H         2.280645        -1.557896        -1.101676
 H         1.717204        -0.507750         2.856219
 H         3.577730        -0.562511         2.512974
 H         1.995569         2.555444         1.079582
