19
Iteration:  3760
 C         4.841107         0.238415        -0.310125
 C         3.274381         0.259903        -0.292952
 C         2.302974         1.279401        -1.021889
 C         1.453653         0.388263        -0.138843
 C         2.261897        -0.892984        -0.348204
 O         2.307473        -1.719713         0.835591
 C         2.541350        -0.726507         1.801496
 C         2.492104         0.551676         1.091149
 O         2.619264         1.682952         1.821214
 H         5.443608        -0.584582        -0.817728
 H         5.201949         1.070744        -0.971116
 H         5.283851         0.300792         0.675370
 H         2.476061         2.373452        -0.650704
 H         1.996786         1.299496        -2.019730
 H         0.419412         0.519227        -0.031856
 H         2.036241        -1.645151        -1.188006
 H         1.853532        -0.784457         2.612982
 H         3.450859        -1.145310         2.200044
 H         2.102393         2.341072         1.289098
