19
Iteration:   600charge 0 multiplicity 1
 C         4.818850         0.173569        -0.390392
 C         3.309804         0.207994        -0.311275
 C         2.279871         0.820723        -1.321759
 C         1.357766         0.176961        -0.081109
 C         2.255353        -1.041012        -0.080168
 O         2.484936        -1.610561         1.130399
 C         2.443096        -0.446950         2.067255
 C         2.507323         0.700122         0.949053
 O         2.611309         2.018801         1.508529
 H         5.139033        -0.473450         0.411637
 H         5.173750        -0.115402        -1.345936
 H         5.340440         1.177649        -0.052149
 H         2.435544         2.014451        -1.232234
 H         2.151724         0.551906        -2.412766
 H         0.288705        -0.083309        -0.035999
 H         2.292906        -1.864153        -0.700169
 H         1.499353        -0.516418         2.638444
 H         3.343394        -0.573594         2.710705
 H         2.237622         2.602548         0.793186
