19
Iteration:  3599
 C         4.803411         0.180851        -0.343929
 C         3.252607         0.320291        -0.308502
 C         2.287927         1.146872        -1.110127
 C         1.394076         0.350236        -0.123390
 C         2.271889        -0.913280        -0.378729
 O         2.379744        -1.705756         0.815543
 C         2.487613        -0.610783         1.891504
 C         2.510583         0.583869         1.064100
 O         2.666727         1.682701         1.893787
 H         5.221355         0.863150        -1.081153
 H         5.177604         0.677494         0.641658
 H         5.076403        -0.858121        -0.390816
 H         2.363242         2.186485        -0.974926
 H         2.191318         1.068128        -2.180897
 H         0.325899         0.396248         0.102147
 H         2.273584        -1.560224        -1.334686
 H         1.694097        -0.675142         2.664753
 H         3.414284        -0.624662         2.544698
 H         2.525278         2.532346         1.342763
