19
Iteration:  1053charge 0 multiplicity 1
 C         4.879209         0.181168        -0.356799
 C         3.288174         0.146294        -0.281820
 C         2.222027         0.815869        -1.305113
 C         1.396054         0.161393        -0.080921
 C         2.320564        -1.026765        -0.097740
 O         2.449198        -1.609844         1.185678
 C         2.477111        -0.367403         1.960553
 C         2.437242         0.749053         0.919472
 O         2.585512         1.944861         1.541154
 H         5.078266        -0.810582         0.019247
 H         5.243211         0.116893        -1.417430
 H         5.365676         1.016154         0.085963
 H         2.182502         1.963951        -1.370748
 H         2.036086         0.516964        -2.305760
 H         0.392380         0.240745         0.078703
 H         2.241883        -1.725028        -0.929104
 H         1.700111        -0.672994         2.714634
 H         3.521309        -0.261903         2.412126
 H         2.542048         2.685605         0.973225
