19
Iteration:  4147
 C         4.859411         0.217263        -0.330824
 C         3.371373         0.282253        -0.341176
 C         2.282872         1.154891        -1.102120
 C         1.363345         0.395762        -0.045004
 C         2.240504        -0.846279        -0.358924
 O         2.374459        -1.713125         0.767229
 C         2.481522        -0.753810         1.881384
 C         2.544309         0.619136         1.046255
 O         2.583370         1.663090         1.886303
 H         5.426204        -0.120314        -1.194493
 H         5.118045         1.238114        -0.054910
 H         5.248578        -0.264710         0.613296
 H         2.379829         2.298041        -1.001884
 H         2.239345         1.057168        -2.180975
 H         0.293744         0.655389         0.229265
 H         2.100937        -1.358017        -1.294123
 H         1.609367        -0.646191         2.585110
 H         3.381991        -1.031577         2.470418
 H         2.260682         2.473073         1.348474
