19
Iteration:  3833charge 0 multiplicity 1
 C         4.854488         0.163682        -0.370841
 C         3.307932         0.308338        -0.307511
 C         2.288356         1.180144        -1.157796
 C         1.455494         0.381506        -0.056100
 C         2.258081        -0.833854        -0.297365
 O         2.404676        -1.650267         0.787437
 C         2.421857        -0.644818         1.812194
 C         2.505684         0.578506         1.015930
 O         2.588830         1.629202         1.994015
 H         5.172915        -0.491611        -1.236669
 H         5.302999         1.109320        -0.692954
 H         5.346452        -0.099871         0.611743
 H         2.426734         2.253436        -1.074546
 H         2.050984         0.700369        -2.158146
 H         0.381548         0.160596         0.075966
 H         2.172515        -1.436005        -1.232979
 H         1.572147        -0.827661         2.521043
 H         3.353746        -0.683422         2.450356
 H         2.325346         2.389920         1.549492
