19
Iteration:   690charge 0 multiplicity 1
 C         4.801347         0.102354        -0.404217
 C         3.306489         0.213286        -0.333744
 C         2.249511         0.874944        -1.159559
 C         1.377164         0.299462        -0.094385
 C         2.376737        -1.054565        -0.191017
 O         2.528453        -1.596965         1.144127
 C         2.427143        -0.466061         2.083800
 C         2.425279         0.644759         1.019130
 O         2.559230         1.960312         1.435994
 H         5.123698        -0.098080         0.671491
 H         5.280396        -0.597038        -1.119147
 H         5.278430         1.110513        -0.556953
 H         2.146299         2.052037        -1.302654
 H         2.050654         0.571508        -2.136467
 H         0.342016         0.200191         0.018946
 H         2.230977        -1.916560        -0.955077
 H         1.590634        -0.505215         2.809535
 H         3.411092        -0.263457         2.576498
 H         2.684199         2.607582         0.648597
