19
Iteration:  2047
 C         4.778049         0.158111        -0.394445
 C         3.270296         0.223908        -0.294581
 C         2.234011         0.793841        -1.279980
 C         1.408965         0.236924        -0.126135
 C         2.340793        -0.939172        -0.113495
 O         2.399749        -1.608897         1.154328
 C         2.500611        -0.484195         2.024859
 C         2.560625         0.661700         0.955812
 O         2.561089         1.947153         1.573056
 H         5.191759         0.127687         0.629493
 H         5.246153        -0.718930        -1.025212
 H         5.080756         1.139160        -0.794711
 H         2.511076         1.817987        -1.484619
 H         1.987405         0.275493        -2.265614
 H         0.324472         0.345809        -0.046448
 H         2.262801        -1.548653        -1.113699
 H         1.733713        -0.366777         2.819041
 H         3.531969        -0.539391         2.455728
 H         2.736483         2.587209         0.906509
