19
Iteration:  2565charge 0 multiplicity 1
 C         4.860600         0.187596        -0.362448
 C         3.240316         0.210568        -0.321940
 C         2.274855         1.071145        -1.101861
 C         1.391825         0.180016        -0.116034
 C         2.240672        -1.077890        -0.212296
 O         2.488547        -1.652242         1.050995
 C         2.440588        -0.492909         1.990132
 C         2.446401         0.630731         1.017128
 O         2.670523         1.911595         1.514022
 H         5.338630         0.422120        -1.369775
 H         5.091585         0.919915         0.422489
 H         5.150604        -0.833474         0.080563
 H         2.314490         2.145824        -0.971431
 H         1.985516         1.018985        -2.190785
 H         0.274542         0.337234         0.103951
 H         2.178173        -1.770630        -0.937027
 H         1.711481        -0.546670         2.796610
 H         3.398212        -0.493369         2.577386
 H         2.377230         2.479332         0.708185
