19
Iteration:  1170
 C         4.795145         0.205673        -0.365132
 C         3.256408         0.159222        -0.303168
 C         2.246640         0.791134        -1.261281
 C         1.444921         0.253159        -0.100692
 C         2.291253        -1.050695        -0.135815
 O         2.420377        -1.557085         1.136343
 C         2.583661        -0.442054         2.015747
 C         2.453304         0.675484         0.962673
 O         2.579694         1.954805         1.546088
 H         5.132936        -0.039583         0.672232
 H         5.283169        -0.514964        -1.025680
 H         5.117634         1.183808        -0.640366
 H         2.325960         1.781462        -1.504460
 H         2.203374         0.066059        -2.147332
 H         0.270508         0.228758        -0.067367
 H         2.067730        -1.737842        -0.994112
 H         1.836090        -0.533702         2.769502
 H         3.541162        -0.199979         2.385160
 H         2.467625         2.647047         0.866262
