19
Iteration:  1901charge 0 multiplicity 1
 C         4.791773         0.208826        -0.376986
 C         3.308324         0.185738        -0.304931
 C         2.269764         0.887787        -1.159074
 C         1.396603         0.181230        -0.060517
 C         2.388529        -0.995526        -0.145053
 O         2.287692        -1.628344         1.198506
 C         2.638326        -0.520689         2.020067
 C         2.396549         0.658598         1.005956
 O         2.573797         2.016699         1.377807
 H         5.319076        -0.743072         0.024075
 H         5.120255         0.320176        -1.428872
 H         5.120189         1.129730         0.299702
 H         2.279104         1.937147        -1.222829
 H         2.332377         0.440056        -2.264657
 H         0.379189         0.007800        -0.377385
 H         2.105921        -1.755724        -0.871825
 H         1.892380        -0.388461         2.838277
 H         3.686932        -0.578724         2.504918
 H         2.798049         2.493492         0.505335
