19
Iteration:  3507charge 0 multiplicity 1
 C         4.836346         0.229063        -0.383221
 C         3.324077         0.311150        -0.268354
 C         2.257722         1.075720        -1.176510
 C         1.404700         0.433362        -0.068431
 C         2.366482        -0.832864        -0.335097
 O         2.321022        -1.739359         0.841560
 C         2.508371        -0.756173         1.820965
 C         2.430789         0.588155         1.084925
 O         2.570204         1.840966         1.868928
 H         5.082708         0.387640        -1.451886
 H         5.334728         0.909228         0.294284
 H         5.055357        -0.803538        -0.058519
 H         2.509021         2.159597        -1.222286
 H         2.177874         0.793728        -2.193066
 H         0.294931         0.399040        -0.083668
 H         2.228387        -1.371460        -1.258119
 H         1.930943        -1.115454         2.630124
 H         3.520959        -0.874576         2.200934
 H         3.157961         1.657597         2.655769
