19
Iteration:  1298charge 0 multiplicity 1
 C         4.808892         0.098444        -0.359501
 C         3.286321         0.226275        -0.301288
 C         2.254037         0.805449        -1.266337
 C         1.343948         0.307732        -0.148980
 C         2.363069        -1.031879        -0.051497
 O         2.485596        -1.678880         1.200613
 C         2.565656        -0.408681         1.947446
 C         2.406487         0.747880         0.888209
 O         2.535269         1.960907         1.507880
 H         5.023866        -0.809203         0.219616
 H         5.176004        -0.073928        -1.363701
 H         5.378970         0.878139         0.226331
 H         2.334082         1.954911        -1.470018
 H         2.281049         0.386118        -2.233906
 H         0.442720         0.225529         0.229934
 H         2.377908        -1.798614        -0.824704
 H         1.819045        -0.228941         2.729788
 H         3.511820        -0.413728         2.511462
 H         2.082136         2.770522         1.117959
