19
Iteration:  3005
 C         4.808841         0.185785        -0.398994
 C         3.284909         0.275581        -0.269378
 C         2.232302         1.201030        -0.990522
 C         1.476864         0.320352        -0.031235
 C         2.221509        -0.950860        -0.296626
 O         2.381228        -1.724613         0.973329
 C         2.622290        -0.639794         1.896023
 C         2.561718         0.561634         1.036470
 O         2.507634         1.806316         1.472919
 H         5.112538        -0.672257        -1.057728
 H         5.399543         1.094293        -0.778801
 H         5.099498        -0.137626         0.662061
 H         2.581356         2.270340        -0.519627
 H         1.989433         1.145544        -2.095174
 H         0.345805         0.602588         0.117298
 H         2.295718        -1.568212        -1.162870
 H         1.790142        -0.573158         2.738996
 H         3.675172        -0.487823         2.291093
 H         2.088534         1.912337         2.277926
