19
Iteration:   173charge 0 multiplicity 1
 C         4.874283         0.127589        -0.441020
 C         3.338880         0.211932        -0.318570
 C         2.255569         0.796427        -1.255751
 C         1.412518         0.242184        -0.112498
 C         2.236608        -1.036606        -0.099831
 O         2.377821        -1.612586         1.251082
 C         2.555922        -0.403317         2.024018
 C         2.504959         0.675952         0.946101
 O         2.494551         2.008854         1.404969
 H         5.395254        -0.611050         0.102969
 H         5.257228        -0.017785        -1.494506
 H         5.197129         1.222395        -0.120003
 H         2.220964         1.924890        -1.601750
 H         2.262821         0.218678        -2.163562
 H         0.334376         0.338316        -0.017610
 H         2.109667        -1.792079        -0.850015
 H         1.857311        -0.279145         2.901726
 H         3.620496        -0.339293         2.441087
 H         2.738069         1.974196         2.366960
