19
Iteration:  3026
 C         4.822807         0.112213        -0.423670
 C         3.265968         0.316550        -0.235896
 C         2.253917         1.119484        -1.092106
 C         1.358514         0.259347        -0.072919
 C         2.326955        -0.914880        -0.309389
 O         2.347647        -1.662774         0.920231
 C         2.678922        -0.710158         1.918496
 C         2.430117         0.643179         1.032728
 O         2.607179         1.908242         1.666767
 H         5.208893        -0.823229        -0.854941
 H         5.190042         0.961517        -1.051119
 H         5.411663         0.203890         0.557388
 H         2.388336         2.306179        -0.799893
 H         2.298095         0.872824        -2.198700
 H         0.182679         0.092739        -0.013061
 H         2.159194        -1.602127        -1.097109
 H         1.875791        -0.787112         2.783202
 H         3.742634        -0.797928         2.327310
 H         1.722157         2.084927         2.117070
