19
Iteration:  3192
 C         4.765633         0.134829        -0.516479
 C         3.273479         0.309639        -0.131653
 C         2.202817         1.097684        -1.038393
 C         1.384970         0.309971        -0.131239
 C         2.351843        -0.858311        -0.310407
 O         2.479392        -1.689911         0.834016
 C         2.551623        -0.712040         1.924586
 C         2.367364         0.617549         1.073119
 O         2.704771         1.850996         1.768162
 H         5.397704         0.661893         0.214399
 H         4.885562        -0.932602        -0.308520
 H         5.059298         0.516642        -1.451637
 H         2.069591         2.234182        -1.153957
 H         2.156381         0.759183        -2.060894
 H         0.265579         0.203948        -0.188840
 H         2.298686        -1.262650        -1.328330
 H         1.681971        -0.739895         2.574874
 H         3.545416        -0.639934         2.293669
 H         2.032492         2.173496         2.315350
