19
Iteration:   698
 C         4.803867         0.104953        -0.352924
 C         3.292331         0.127989        -0.298973
 C         2.206876         0.929120        -1.209687
 C         1.377848         0.231779        -0.130502
 C         2.306691        -0.980155        -0.152404
 O         2.593808        -1.640115         1.133335
 C         2.446335        -0.422344         2.066075
 C         2.457903         0.706004         0.978703
 O         2.568121         1.969572         1.472378
 H         5.221963        -0.277286         0.574131
 H         5.116663        -0.558187        -1.107596
 H         5.285557         1.117198        -0.559292
 H         2.233677         1.977218        -1.195748
 H         2.050445         0.435732        -2.195734
 H         0.248519         0.163223        -0.110945
 H         2.262548        -1.660034        -0.962029
 H         1.526549        -0.344331         2.694376
 H         3.332521        -0.605627         2.742176
 H         2.537226         2.460503         0.604176
