19
Iteration:  1596charge 0 multiplicity 1
 C         4.783014         0.109758        -0.417460
 C         3.272420         0.255254        -0.246705
 C         2.279966         0.876158        -1.274357
 C         1.372772         0.262102        -0.088714
 C         2.413991        -1.003701        -0.091416
 O         2.479395        -1.601791         1.133430
 C         2.463158        -0.459129         2.015521
 C         2.434912         0.668790         0.962264
 O         2.585375         1.930697         1.480641
 H         5.166848        -0.253882         0.624098
 H         5.004730        -0.800782        -1.082337
 H         5.350978         1.035530        -0.688861
 H         2.411571         2.004526        -1.371559
 H         2.118434         0.481296        -2.139732
 H         0.327098         0.097703        -0.074905
 H         2.453668        -1.891460        -0.724476
 H         1.603142        -0.353903         2.685188
 H         3.342977        -0.308716         2.642414
 H         2.048640         2.565203         0.971412
