19
Iteration:  2675
 C         4.842523         0.106825        -0.442774
 C         3.344596         0.235204        -0.248857
 C         2.247132         1.036322        -1.047884
 C         1.376125         0.341691         0.011975
 C         2.325695        -1.013036        -0.272245
 O         2.458308        -1.722885         1.012762
 C         2.561637        -0.599519         1.978028
 C         2.389789         0.645704         1.031354
 O         2.469926         2.016555         1.413657
 H         5.208817        -0.926422        -0.704280
 H         5.117061         0.707005        -1.329553
 H         5.591428         0.265188         0.389439
 H         2.159546         2.096568        -0.888627
 H         2.126035         0.730022        -2.157659
 H         0.356578         0.537898         0.267653
 H         2.204563        -1.584980        -1.040882
 H         1.794752        -0.813972         2.737427
 H         3.598938        -0.521191         2.539639
 H         3.036135         2.120921         2.213839
