19
Iteration:  3456charge 0 multiplicity 1
 C         4.817363         0.194218        -0.343227
 C         3.294587         0.325503        -0.315344
 C         2.247815         1.317023        -0.926447
 C         1.368541         0.359008        -0.101291
 C         2.366338        -0.992997        -0.411361
 O         2.378995        -1.723659         0.827302
 C         2.492251        -0.664444         1.925584
 C         2.410934         0.499534         1.034531
 O         2.734672         1.728576         1.711602
 H         5.198604        -0.300698        -1.235291
 H         5.051928         1.313391        -0.654646
 H         5.167375        -0.050598         0.616962
 H         2.275509         2.308159        -0.419100
 H         2.123611         1.508634        -2.015702
 H         0.301078         0.379464         0.065793
 H         2.244800        -1.687058        -1.369356
 H         1.671164        -0.951143         2.644483
 H         3.357526        -1.087556         2.484272
 H         1.927301         2.369930         1.877520
