19
Iteration:  3379charge 0 multiplicity 1
 C         4.819881         0.269417        -0.445998
 C         3.314754         0.312638        -0.283685
 C         2.305456         1.200152        -1.072383
 C         1.393449         0.362342        -0.117224
 C         2.270676        -0.872757        -0.358130
 O         2.338199        -1.681951         0.885691
 C         2.613925        -0.662226         1.848593
 C         2.479026         0.526889         1.037647
 O         2.562958         1.704736         1.865864
 H         4.939032        -0.578765        -1.146876
 H         5.257930         1.240464        -0.933605
 H         5.313931        -0.018782         0.457888
 H         2.378636         2.293139        -0.928978
 H         2.125498         0.862209        -2.085726
 H         0.336021         0.273926         0.050074
 H         2.011922        -1.379154        -1.337262
 H         1.748950        -0.835083         2.509331
 H         3.598297        -0.854660         2.329713
 H         2.606605         1.340564         2.727111
