19
Iteration:  2645
 C         4.771937         0.189888        -0.495069
 C         3.338488         0.235532        -0.286507
 C         2.332284         0.989712        -1.124638
 C         1.427235         0.300631        -0.091430
 C         2.363581        -0.974318        -0.233239
 O         2.281946        -1.617482         1.113752
 C         2.651897        -0.571869         1.991286
 C         2.504880         0.635974         0.992487
 O         2.397517         1.855445         1.568201
 H         5.074172        -0.745404        -0.970227
 H         5.091219         0.988172        -1.159713
 H         5.347868         0.246352         0.431578
 H         2.336465         2.024197        -0.916701
 H         2.328208         0.641355        -2.200365
 H         0.406042         0.307912         0.139631
 H         2.105911        -1.705658        -1.133400
 H         1.871273        -0.540518         2.728718
 H         3.621719        -0.568651         2.376219
 H         3.351567         2.223604         1.733997
