19
Iteration:   786
 C         4.839524         0.202322        -0.465613
 C         3.333245         0.087838        -0.261783
 C         2.315754         0.899562        -1.215347
 C         1.387877         0.252082        -0.095069
 C         2.344712        -1.027109        -0.119887
 O         2.344466        -1.604807         1.206299
 C         2.563641        -0.469129         2.069323
 C         2.451732         0.618963         1.013477
 O         2.480682         2.001648         1.408631
 H         5.445655        -0.667545        -0.184119
 H         4.954912         0.399483        -1.491312
 H         5.252930         1.045062         0.160991
 H         2.335789         1.973627        -1.231668
 H         2.318679         0.490768        -2.302984
 H         0.273192         0.270601         0.041709
 H         2.297199        -1.771363        -0.959494
 H         1.887305        -0.409781         2.942778
 H         3.636007        -0.688132         2.387424
 H         2.653145         2.578728         0.678218
