19
Iteration:   370
 C         4.843662         0.026205        -0.446089
 C         3.374313         0.111628        -0.252597
 C         2.337889         0.828105        -1.172957
 C         1.359378         0.207815        -0.126220
 C         2.281373        -1.017462        -0.087328
 O         2.453245        -1.565803         1.154176
 C         2.506501        -0.357866         1.989332
 C         2.448460         0.716907         0.926415
 O         2.473871         2.012818         1.514485
 H         5.345510        -0.687196         0.215193
 H         5.246775        -0.038312        -1.499814
 H         5.319221         1.047707         0.005608
 H         2.337394         2.011845        -1.432822
 H         2.255230         0.488671        -2.223851
 H         0.326094        -0.054754         0.042078
 H         2.187514        -1.780994        -0.802658
 H         1.647918        -0.285857         2.678849
 H         3.456189        -0.380334         2.576751
 H         2.326191         2.690472         0.755939
