19
Iteration:  2347
 C         4.796949         0.046650        -0.464587
 C         3.325842         0.174118        -0.263021
 C         2.261971         0.946050        -1.141917
 C         1.428131         0.233150        -0.041353
 C         2.368111        -1.023038        -0.226679
 O         2.480819        -1.620678         1.132955
 C         2.500011        -0.505154         2.001888
 C         2.429545         0.665538         1.060641
 O         2.501307         2.045914         1.484726
 H         5.310747         0.524891         0.415280
 H         5.178020        -0.963180        -0.502555
 H         5.023437         0.717995        -1.365666
 H         2.424219         2.012310        -1.144348
 H         2.208804         0.719908        -2.232640
 H         0.282592         0.406168         0.128810
 H         2.396157        -1.668057        -1.091320
 H         1.488782        -0.535439         2.484235
 H         3.314861        -0.541671         2.700825
 H         2.435979         2.422089         0.606795
