19
Iteration:  3427
 C         4.803859         0.279948        -0.390282
 C         3.334164         0.380605        -0.215703
 C         2.296761         1.161282        -1.058856
 C         1.349647         0.373230        -0.053185
 C         2.260388        -0.874360        -0.347660
 O         2.375823        -1.710871         0.762475
 C         2.485973        -0.784615         1.896234
 C         2.484266         0.544189         1.096028
 O         2.649739         1.717925         1.816994
 H         5.129292        -0.535369        -1.051508
 H         5.102749         1.197802        -0.887941
 H         5.319409         0.180549         0.614292
 H         2.255028         2.224042        -0.849842
 H         2.249321         0.783532        -2.132305
 H         0.253310         0.385190         0.189290
 H         2.259394        -1.384999        -1.322188
 H         1.595341        -0.946259         2.550968
 H         3.438834        -1.071287         2.314045
 H         2.909447         2.429748         1.162050
