19
Iteration:   866
 C         4.761960         0.138869        -0.351716
 C         3.281602         0.176899        -0.247931
 C         2.285746         0.834428        -1.276542
 C         1.378793         0.311658        -0.106984
 C         2.318008        -1.074961        -0.120260
 O         2.451078        -1.595471         1.162803
 C         2.605162        -0.463497         1.949364
 C         2.418125         0.694017         0.945465
 O         2.564264         1.969206         1.514906
 H         5.268939        -0.251941         0.559347
 H         5.217058        -0.450212        -1.212380
 H         5.129237         1.124246        -0.560953
 H         2.301469         1.994137        -1.269982
 H         2.009679         0.371819        -2.180979
 H         0.382668         0.245200         0.101400
 H         2.236555        -1.754086        -1.007392
 H         1.865512        -0.390621         2.794846
 H         3.597011        -0.526558         2.535527
 H         2.257056         2.596061         0.878819
