19
Iteration:  4221
 C         4.876036         0.228146        -0.443837
 C         3.389100         0.211218        -0.318997
 C         2.340891         1.214992        -0.953337
 C         1.416709         0.396644         0.043946
 C         2.242897        -0.853131        -0.338577
 O         2.343179        -1.745572         0.786869
 C         2.474002        -0.748180         1.934788
 C         2.564042         0.528356         0.999294
 O         2.431310         1.777381         1.728272
 H         5.389462         0.831359        -1.189941
 H         5.263485         0.721370         0.559543
 H         5.183129        -0.875055        -0.481030
 H         2.442190         2.298686        -0.660048
 H         2.168649         1.132005        -2.027895
 H         0.415980         0.496310         0.483012
 H         2.379258        -1.284897        -1.272594
 H         1.530749        -0.847607         2.499887
 H         3.355961        -0.814912         2.616168
 H         2.929450         2.430975         1.120124
