19
Iteration:  2984charge 0 multiplicity 1
 C         4.825951         0.181693        -0.365808
 C         3.320883         0.157402        -0.354892
 C         2.280422         1.125199        -1.055645
 C         1.343915         0.278820        -0.058818
 C         2.259283        -0.906245        -0.253949
 O         2.450051        -1.677553         0.895536
 C         2.540272        -0.686478         1.962494
 C         2.493431         0.609133         1.056027
 O         2.586495         1.938192         1.568333
 H         5.101508        -0.081926        -1.430632
 H         5.084016         1.296187        -0.419605
 H         5.207850        -0.500393         0.461945
 H         2.169722         2.302666        -0.799975
 H         2.138986         0.785163        -2.108007
 H         0.210827         0.330073         0.134638
 H         2.032019        -1.572408        -1.095251
 H         1.625200        -0.688785         2.658428
 H         3.554617        -0.738403         2.384915
 H         2.627961         1.927693         2.601594
