19
Iteration:  2800charge 0 multiplicity 1
 C         4.742459         0.205372        -0.477830
 C         3.290967         0.302991        -0.281023
 C         2.287305         1.019162        -1.105835
 C         1.423661         0.228797        -0.087146
 C         2.331460        -0.936748        -0.233654
 O         2.382593        -1.676002         1.020959
 C         2.514558        -0.639427         2.010509
 C         2.506889         0.616937         1.002860
 O         2.559249         1.925076         1.583079
 H         5.424974         0.315550         0.371857
 H         5.080334        -0.771579        -0.900640
 H         5.085949         0.934517        -1.255167
 H         2.244797         2.191552        -0.912672
 H         2.290369         0.878476        -2.189320
 H         0.291925         0.303381        -0.068075
 H         2.142379        -1.654636        -1.194717
 H         1.569450        -0.642654         2.630689
 H         3.425708        -0.727949         2.722295
 H         3.305152         1.969220         2.168650
