19
Iteration:  3392
 C         4.829087         0.260445        -0.448352
 C         3.307092         0.302059        -0.337974
 C         2.303087         1.089539        -1.149729
 C         1.393024         0.381636        -0.018575
 C         2.207757        -0.883577        -0.314119
 O         2.357821        -1.684780         0.780658
 C         2.560568        -0.734841         1.846057
 C         2.531276         0.650131         1.032038
 O         2.516854         1.704133         1.945296
 H         5.358638        -0.522099        -0.991956
 H         5.180874         1.297324        -0.792931
 H         5.322321         0.281732         0.527657
 H         2.325290         2.155801        -1.037443
 H         2.330819         0.967204        -2.271882
 H         0.353662         0.619601         0.086731
 H         2.107055        -1.636591        -1.187125
 H         1.820470        -0.586492         2.667977
 H         3.527505        -0.851387         2.339336
 H         3.188358         1.520036         2.701396
