19
Iteration:  1785charge 0 multiplicity 1
 C         4.845677         0.110468        -0.419707
 C         3.306402         0.117895        -0.289159
 C         2.272126         0.913558        -1.122997
 C         1.449478         0.293863        -0.091198
 C         2.272784        -0.997992        -0.133483
 O         2.435775        -1.657249         1.183395
 C         2.564694        -0.429693         1.961944
 C         2.485174         0.682301         0.937183
 O         2.411382         1.941030         1.451615
 H         5.325240        -0.168263         0.521029
 H         5.133351        -0.687683        -1.195347
 H         5.234968         1.071765        -0.753528
 H         2.488266         2.110256        -0.977607
 H         2.217462         0.675083        -2.131805
 H         0.375927         0.457279         0.110026
 H         2.551832        -1.834105        -0.860597
 H         1.801584        -0.390903         2.769146
 H         3.532142        -0.447772         2.406719
 H         2.523133         2.730540         0.818061
