19
Iteration:  1175
 C         4.778501         0.213641        -0.363799
 C         3.292143         0.195626        -0.335301
 C         2.232399         0.767029        -1.261494
 C         1.418638         0.263155        -0.108462
 C         2.251338        -1.037807        -0.143234
 O         2.444878        -1.580521         1.151533
 C         2.559020        -0.423165         2.018401
 C         2.464263         0.671691         0.951257
 O         2.598726         1.942765         1.550766
 H         5.042777        -0.077779         0.667115
 H         5.211449        -0.570394        -1.035372
 H         5.148579         1.267958        -0.560999
 H         2.428913         1.914741        -1.516171
 H         2.239881         0.085309        -2.077645
 H         0.389282         0.181725        -0.063323
 H         2.221454        -1.839611        -0.907870
 H         1.733013        -0.528514         2.781639
 H         3.591350        -0.260498         2.521279
 H         2.442520         2.577186         0.844765
