19
Iteration:  3642charge 0 multiplicity 1
 C         4.772294         0.249844        -0.329075
 C         3.325843         0.254428        -0.207569
 C         2.345976         1.123594        -1.076485
 C         1.385182         0.367283        -0.036557
 C         2.237881        -0.880404        -0.387015
 O         2.324194        -1.679436         0.781615
 C         2.541037        -0.760203         1.864990
 C         2.492726         0.547395         1.042032
 O         2.636369         1.791448         1.829096
 H         5.201224         0.383762        -1.296140
 H         5.356082         1.057573         0.136035
 H         5.162170        -0.664926        -0.016752
 H         2.402814         2.196314        -1.132272
 H         2.324340         0.777234        -2.100291
 H         0.334359         0.473820         0.218027
 H         2.100393        -1.345248        -1.413319
 H         1.864080        -0.820788         2.722018
 H         3.564049        -0.963871         2.249552
 H         2.211004         2.628209         1.394425
