19
Iteration:  1130charge 0 multiplicity 1
 C         4.805963         0.141965        -0.460756
 C         3.379137         0.240637        -0.290498
 C         2.331816         0.942800        -1.235672
 C         1.415440         0.160655        -0.109617
 C         2.339078        -1.033673        -0.156333
 O         2.341361        -1.571625         1.217663
 C         2.628456        -0.437150         2.043301
 C         2.486762         0.655113         1.008033
 O         2.432558         1.922250         1.455820
 H         5.260758        -0.061120         0.567887
 H         5.027819        -0.775587        -1.101717
 H         5.264253         1.096184        -0.810184
 H         1.998915         2.078606        -1.064382
 H         2.200340         0.514416        -2.228401
 H         0.380592         0.315992         0.019121
 H         1.932484        -1.892964        -0.790968
 H         1.865769        -0.302491         2.865070
 H         3.622156        -0.795448         2.494625
 H         2.525515         2.516543         0.670150
