19
Iteration:  2255charge 0 multiplicity 1
 C         4.853802         0.271124        -0.360287
 C         3.302730         0.174841        -0.355004
 C         2.250234         0.871812        -1.226694
 C         1.435879         0.243858        -0.146681
 C         2.311526        -1.039182        -0.116150
 O         2.263302        -1.657258         1.241821
 C         2.648795        -0.466556         1.994640
 C         2.471430         0.665156         0.946415
 O         2.550903         1.891008         1.478760
 H         5.340736        -0.346038         0.414646
 H         5.436349        -0.024501        -1.285016
 H         5.080472         1.292168        -0.121258
 H         2.259509         1.980143        -1.155884
 H         2.130169         0.578785        -2.393169
 H         0.412862         0.512985         0.005730
 H         1.986165        -1.871306        -0.783320
 H         1.874867        -0.355498         2.706195
 H         3.661628        -0.473089         2.424879
 H         2.594009         2.651448         0.802196
