19
Iteration:  1779charge 0 multiplicity 1
 C         4.850717         0.094862        -0.403310
 C         3.308843         0.197459        -0.265342
 C         2.328173         0.928760        -1.139709
 C         1.404660         0.270647        -0.085777
 C         2.286463        -1.046730        -0.141085
 O         2.392563        -1.658203         1.180892
 C         2.611058        -0.428784         1.982740
 C         2.451585         0.690963         0.937976
 O         2.430642         1.943060         1.438176
 H         5.538530        -0.210917         0.425017
 H         5.097396        -0.577909        -1.208644
 H         5.180230         1.141659        -0.761441
 H         2.258756         1.930935        -1.021475
 H         2.412817         0.687376        -2.289486
 H         0.304244         0.331891         0.191344
 H         2.248062        -1.741837        -0.970108
 H         1.889359        -0.427931         2.827958
 H         3.650481        -0.470535         2.464353
 H         2.446032         2.636474         0.790313
