19
Iteration:  3383
 C         4.849188         0.281568        -0.445707
 C         3.288716         0.300359        -0.291969
 C         2.310469         1.185586        -1.114167
 C         1.397053         0.335302        -0.085994
 C         2.251295        -0.870312        -0.342364
 O         2.337533        -1.673887         0.859141
 C         2.619711        -0.654806         1.838049
 C         2.500758         0.545815         1.034734
 O         2.544226         1.711688         1.895032
 H         5.056251        -0.488997        -1.185393
 H         5.204752         1.123026        -0.985255
 H         5.194896         0.033072         0.584179
 H         2.360233         2.230153        -0.876034
 H         2.238267         0.784867        -2.172675
 H         0.297761         0.474832         0.051029
 H         1.960379        -1.397018        -1.284965
 H         1.760451        -0.830822         2.510529
 H         3.513878        -0.893083         2.401073
 H         2.799266         1.223707         2.751114
