19
Iteration:  4496
 C         4.887526         0.290737        -0.375482
 C         3.327597         0.287013        -0.321821
 C         2.277674         1.126763        -1.153738
 C         1.441801         0.428102        -0.152373
 C         2.320791        -0.919266        -0.296692
 O         2.307762        -1.695059         0.818302
 C         2.512594        -0.672884         1.895195
 C         2.414373         0.587365         0.985656
 O         2.643927         1.655228         1.974091
 H         5.250248         0.728410        -1.286101
 H         5.324217         0.628325         0.611231
 H         5.102382        -0.794301        -0.424715
 H         2.115947         2.202314        -0.958033
 H         2.235612         0.711762        -2.146875
 H         0.308024         0.548318        -0.098939
 H         2.119677        -1.497850        -1.210188
 H         1.898479        -0.624847         2.806645
 H         3.566516        -0.673939         2.210326
 H         1.770096         2.212369         1.824617
