19
Iteration:  1845
 C         4.713953         0.178234        -0.411068
 C         3.307366         0.136280        -0.299073
 C         2.269616         0.823028        -1.322238
 C         1.392705         0.275869        -0.095452
 C         2.400920        -1.045749        -0.137629
 O         2.457523        -1.593102         1.147656
 C         2.477731        -0.433203         2.030995
 C         2.404147         0.709002         0.960852
 O         2.634853         1.942614         1.598526
 H         5.168653        -0.388768         0.484868
 H         4.972498        -0.412471        -1.303729
 H         5.187871         1.239184        -0.536349
 H         2.322190         1.828683        -1.514580
 H         2.424737         0.272325        -2.347132
 H         0.279472         0.297039        -0.102499
 H         2.487729        -1.778338        -0.877817
 H         1.557844        -0.382578         2.681972
 H         3.407657        -0.363234         2.706106
 H         2.222270         2.720318         1.135177
