19
Iteration:    15charge 0 multiplicity 1
 C         4.870519         0.143993        -0.416797
 C         3.357355         0.154554        -0.288039
 C         2.278762         0.899833        -1.244936
 C         1.414299         0.193528        -0.199616
 C         2.216746        -1.055917        -0.141025
 O         2.353364        -1.543951         1.196471
 C         2.573452        -0.453862         2.113280
 C         2.550283         0.648254         1.008377
 O         2.553504         2.032592         1.437532
 H         5.463030        -0.492043         0.469061
 H         4.998869        -0.449386        -1.337013
 H         5.274870         1.136526        -0.490708
 H         2.256491         1.941460        -1.355368
 H         1.993820         0.430613        -2.361274
 H         0.326129         0.169625        -0.106738
 H         2.014550        -1.923005        -0.785211
 H         1.952586        -0.362952         3.011541
 H         3.594623        -0.554022         2.687375
 H         1.585627         2.274347         1.125523
