19
Iteration:  4487charge 0 multiplicity 1
 C         4.815738         0.275386        -0.332745
 C         3.330889         0.305976        -0.297325
 C         2.336963         1.046600        -1.130079
 C         1.369332         0.379961        -0.113241
 C         2.271398        -0.814132        -0.302741
 O         2.297956        -1.690886         0.844895
 C         2.550704        -0.705539         1.792251
 C         2.480038         0.586021         1.038861
 O         2.651895         1.682350         1.914638
 H         5.216480         0.893827        -1.233137
 H         5.276876         0.807959         0.566324
 H         5.357293        -0.685604        -0.414161
 H         2.472448         2.129173        -1.165883
 H         2.120264         0.796725        -2.159576
 H         0.253074         0.391683        -0.040803
 H         2.228334        -1.383199        -1.293507
 H         1.750016        -0.898075         2.515226
 H         3.525611        -0.803075         2.277550
 H         1.845213         2.332573         1.912941
