19
Iteration:  4710
 C         4.816432         0.151633        -0.417060
 C         3.319792         0.343478        -0.304134
 C         2.314776         1.118464        -1.144887
 C         1.367428         0.448774         0.004711
 C         2.182765        -0.801090        -0.268707
 O         2.532703        -1.737735         0.731566
 C         2.568227        -0.774035         1.913167
 C         2.501642         0.633825         1.088962
 O         2.537715         1.739658         1.887491
 H         5.144128         0.300122        -1.471775
 H         5.247485         0.998115         0.207815
 H         5.095963        -0.850146         0.079873
 H         2.247485         2.203224        -1.241215
 H         2.099591         0.823525        -2.158651
 H         0.261976         0.383802        -0.091370
 H         2.109525        -1.200510        -1.261335
 H         1.715581        -1.053150         2.576843
 H         3.483887        -1.136474         2.338743
 H         1.727134         2.390071         1.629235
