19
Iteration:   218
 C         4.931399         0.061513        -0.473035
 C         3.328215         0.168380        -0.237116
 C         2.268634         0.838540        -1.167232
 C         1.292041         0.217425        -0.138386
 C         2.253979        -0.954180        -0.112809
 O         2.584779        -1.543049         1.199904
 C         2.406040        -0.434698         2.058457
 C         2.427890         0.666397         1.005290
 O         2.516686         1.986461         1.340116
 H         5.243226        -0.528304         0.308350
 H         5.098094        -0.586449        -1.340285
 H         5.399838         1.133090        -0.544986
 H         2.226283         1.974608        -1.149898
 H         2.065066         0.593914        -2.172543
 H         0.226551         0.129435        -0.026267
 H         2.218359        -1.636795        -0.967960
 H         1.398797        -0.379693         2.571404
 H         3.182138        -0.322189         2.874807
 H         3.522277         2.118325         1.558009
