19
Iteration:   566charge 0 multiplicity 1
 C         4.792955         0.070747        -0.312890
 C         3.307040         0.198693        -0.212880
 C         2.255930         0.906543        -1.155147
 C         1.331804         0.246281        -0.065588
 C         2.321508        -1.086761        -0.142323
 O         2.544777        -1.512030         1.090676
 C         2.487871        -0.393919         2.028859
 C         2.484428         0.664073         0.965831
 O         2.544154         1.906271         1.371981
 H         5.065766        -0.854283         0.120583
 H         5.086700        -0.054901        -1.351020
 H         5.423175         0.946598         0.107850
 H         2.426409         2.083903        -1.278862
 H         2.088719         0.548130        -2.248612
 H         0.191941         0.316972        -0.020188
 H         2.395647        -1.816752        -0.863058
 H         1.615050        -0.547534         2.691504
 H         3.396242        -0.231087         2.651470
 H         2.216044         2.381618         0.494990
