19
Iteration:  4122charge 0 multiplicity 1
 C         4.862334         0.304330        -0.287696
 C         3.340563         0.342535        -0.263229
 C         2.262611         1.218618        -0.948982
 C         1.415585         0.350174        -0.070045
 C         2.282701        -0.922149        -0.390816
 O         2.231268        -1.721524         0.793196
 C         2.502695        -0.841978         1.836257
 C         2.511239         0.563527         1.040035
 O         2.668703         1.725581         1.708438
 H         5.254890        -0.418852        -0.982513
 H         5.331841         1.325172        -0.406639
 H         5.226060         0.067489         0.744512
 H         2.577034         2.219066        -0.557602
 H         2.172093         1.397377        -2.006190
 H         0.355399         0.349543         0.200353
 H         2.327309        -1.517622        -1.275682
 H         1.735583        -0.883432         2.636542
 H         3.521623        -0.901222         2.316077
 H         2.065448         2.450200         1.285189
