19
Iteration:  1700
 C         4.773468         0.195716        -0.335393
 C         3.257287         0.143454        -0.289936
 C         2.215995         0.890164        -1.267793
 C         1.398235         0.219718        -0.133913
 C         2.372834        -1.020987        -0.102741
 O         2.533429        -1.612426         1.165479
 C         2.389082        -0.444805         2.019604
 C         2.418020         0.675987         1.002404
 O         2.678543         1.948867         1.459772
 H         5.266224        -0.717042         0.021091
 H         5.033667         0.284766        -1.445487
 H         5.308581         1.075725         0.141877
 H         2.310305         1.909832        -1.404558
 H         2.116517         0.341691        -2.271572
 H         0.246120         0.309882         0.129860
 H         2.280780        -1.854089        -0.884470
 H         1.343678        -0.355379         2.493817
 H         3.221649        -0.476129         2.761413
 H         2.691326         2.532264         0.727421
