19
Iteration:  3343
 C         4.761347         0.231977        -0.429119
 C         3.314703         0.296161        -0.205623
 C         2.283812         1.212049        -0.889916
 C         1.399351         0.329266        -0.017418
 C         2.248306        -0.876452        -0.401155
 O         2.438500        -1.749606         0.754581
 C         2.540096        -0.839921         1.886489
 C         2.495751         0.578160         1.098899
 O         2.630136         1.874752         1.694730
 H         4.940652        -0.128219        -1.521347
 H         5.344113         1.175398        -0.464491
 H         5.275125        -0.493739         0.308136
 H         2.401166         2.317764        -0.618711
 H         2.085522         1.076522        -1.950863
 H         0.279121         0.109144         0.137264
 H         2.078681        -1.535958        -1.221600
 H         1.709445        -0.814823         2.629973
 H         3.442155        -0.973110         2.559057
 H         1.935095         2.431427         1.418206
