19
Iteration:  2063
 C         4.824793         0.198896        -0.361253
 C         3.310054         0.208636        -0.299305
 C         2.225045         0.794116        -1.327714
 C         1.288188         0.258236        -0.172467
 C         2.298458        -1.052577        -0.157316
 O         2.467970        -1.595569         1.119078
 C         2.517046        -0.453372         2.021367
 C         2.362523         0.711275         1.025152
 O         2.721920         1.957504         1.606033
 H         5.305636         0.004266         0.597018
 H         5.099602        -0.625214        -0.913306
 H         5.295107         1.115758        -0.740384
 H         2.015345         1.924829        -1.419727
 H         2.255689         0.180326        -2.194262
 H         0.148188         0.168184        -0.148639
 H         2.270824        -1.853293        -0.805088
 H         1.610721        -0.523620         2.644146
 H         3.365913        -0.426110         2.686731
 H         2.788223         2.610673         0.929257
