19
Iteration:  1202charge 0 multiplicity 1
 C         4.821150         0.170492        -0.377827
 C         3.300223         0.167489        -0.303893
 C         2.136348         0.878462        -1.231702
 C         1.430948         0.195658        -0.122495
 C         2.340392        -1.062477        -0.116170
 O         2.499028        -1.595542         1.188634
 C         2.416001        -0.411168         2.003313
 C         2.434790         0.693470         0.923383
 O         2.682065         1.960201         1.504423
 H         5.261762        -0.397097         0.446213
 H         5.158341        -0.229013        -1.309418
 H         5.127694         1.177686        -0.218130
 H         2.180242         1.885556        -1.326613
 H         2.239506         0.397424        -2.259263
 H         0.264330         0.101625        -0.033781
 H         2.253000        -1.916820        -0.853081
 H         1.471836        -0.584670         2.553863
 H         3.236589        -0.162745         2.699113
 H         2.461146         2.657214         0.895768
