19
Iteration:  1450
 C         4.777626         0.088703        -0.408791
 C         3.308353         0.169580        -0.220495
 C         2.245597         0.924587        -1.204055
 C         1.377041         0.230008        -0.080450
 C         2.417013        -0.998944        -0.135159
 O         2.516843        -1.630479         1.196705
 C         2.495770        -0.482346         2.023996
 C         2.401247         0.648896         0.941844
 O         2.562833         2.035549         1.382087
 H         4.913521        -0.806173         0.234424
 H         5.132278        -0.249433        -1.381039
 H         5.441353         0.945183        -0.015120
 H         2.260923         2.043829        -1.049346
 H         2.045215         0.719128        -2.178330
 H         0.191054         0.247682         0.018134
 H         2.474948        -1.833832        -0.865424
 H         1.544725        -0.370002         2.495411
 H         3.321771        -0.417393         2.768520
 H         2.236949         2.621710         0.685790
