19
Iteration:  2168
 C         4.890877         0.037423        -0.459300
 C         3.339086         0.204299        -0.302121
 C         2.260280         0.888844        -1.239485
 C         1.346500         0.204766        -0.137368
 C         2.348868        -1.050851        -0.102473
 O         2.445227        -1.567311         1.202485
 C         2.544055        -0.352529         1.976855
 C         2.430488         0.724038         0.899500
 O         2.464613         1.905547         1.613609
 H         5.138796        -1.044304        -0.266654
 H         5.262063         0.360006        -1.528789
 H         5.408426         0.623059         0.307708
 H         2.491104         1.854166        -1.447089
 H         2.098612         0.463898        -2.315489
 H         0.250845         0.382754         0.035038
 H         2.177163        -1.845052        -0.923227
 H         1.739723        -0.277276         2.773421
 H         3.530619        -0.240188         2.504399
 H         2.522676         2.784792         1.158688
