19
Iteration:  4975charge 0 multiplicity 1
 C         4.852642         0.483292        -0.469942
 C         3.374305         0.272261        -0.335387
 C         2.227415         1.181945        -1.033735
 C         1.414737         0.412038         0.027331
 C         2.304830        -0.945239        -0.308642
 O         2.227312        -1.813403         0.856998
 C         2.497393        -0.810538         1.836654
 C         2.588152         0.571452         1.054110
 O         2.574788         1.717791         1.837234
 H         5.389615        -0.031017        -1.259642
 H         5.053289         1.576251        -0.771271
 H         5.351222         0.110040         0.421125
 H         2.540623         2.249652        -1.172455
 H         2.097491         0.673247        -1.971539
 H         0.309614         0.295866         0.270421
 H         2.311416        -1.532685        -1.209862
 H         1.602601        -0.714374         2.521618
 H         3.400782        -1.147685         2.442655
 H         3.090079         2.401258         1.355235
