19
Iteration:  3654charge 0 multiplicity 1
 C         4.830815         0.219755        -0.369878
 C         3.312850         0.354735        -0.237167
 C         2.317436         1.164623        -1.024490
 C         1.445045         0.355068        -0.021254
 C         2.320093        -0.846427        -0.321881
 O         2.265588        -1.748776         0.767127
 C         2.539463        -0.846699         1.826622
 C         2.478081         0.604098         1.142406
 O         2.624545         1.848793         1.760819
 H         4.907041         0.023995        -1.391540
 H         5.281956         1.124032         0.039281
 H         5.164562        -0.617078         0.187032
 H         2.347743         2.199856        -0.936430
 H         2.190638         0.800927        -2.037207
 H         0.357205         0.214041         0.060680
 H         2.175513        -1.460048        -1.195022
 H         1.645348        -1.013438         2.450783
 H         3.482063        -1.052504         2.358876
 H         2.384264         2.462735         1.060553
