19
Iteration:  3638charge 0 multiplicity 1
 C         4.776144         0.254552        -0.333499
 C         3.333372         0.243392        -0.199498
 C         2.333644         1.110892        -1.101997
 C         1.375326         0.385607        -0.041341
 C         2.218173        -0.870062        -0.389246
 O         2.337770        -1.691414         0.775609
 C         2.551731        -0.705229         1.900449
 C         2.490435         0.547341         1.017158
 O         2.638964         1.758568         1.845743
 H         5.278984         0.418929        -1.328941
 H         5.252169         1.052832         0.281992
 H         5.222640        -0.742267        -0.035549
 H         2.456007         2.286042        -1.034759
 H         2.286937         0.758684        -2.151144
 H         0.297997         0.556454         0.110105
 H         2.101141        -1.428713        -1.382463
 H         1.844004        -0.778468         2.731920
 H         3.588974        -0.922972         2.177888
 H         2.198486         2.464322         1.441331
