19
Iteration:     7charge 0 multiplicity 1
 C         4.803816         0.132506        -0.365432
 C         3.324384         0.161153        -0.266806
 C         2.282529         0.862297        -1.233405
 C         1.397805         0.216283        -0.150910
 C         2.281344        -1.018125        -0.131353
 O         2.412208        -1.563343         1.211875
 C         2.520370        -0.401348         2.048039
 C         2.502893         0.656387         0.965091
 O         2.613668         2.008801         1.363917
 H         5.286363        -0.498712         0.391377
 H         5.083351        -0.290086        -1.352459
 H         5.323188         1.126252        -0.384948
 H         2.257371         1.999007        -1.224732
 H         2.031820         0.361364        -2.185436
 H         0.298174         0.170940         0.004032
 H         2.125254        -1.932403        -0.747780
 H         1.640968        -0.597489         2.734532
 H         3.567200        -0.716916         2.355616
 H         1.724689         2.296046         1.786075
