19
Iteration:  3959charge 0 multiplicity 1
 C         4.824657         0.300628        -0.260217
 C         3.288202         0.340962        -0.245077
 C         2.228707         1.084161        -1.147450
 C         1.341299         0.420661        -0.168340
 C         2.268193        -0.815576        -0.401073
 O         2.350355        -1.759385         0.824708
 C         2.527601        -0.717287         1.864438
 C         2.508064         0.541033         1.040106
 O         2.744351         1.717008         1.912886
 H         5.312324         0.749796        -1.099423
 H         5.219641         0.621282         0.749642
 H         5.094663        -0.769298        -0.289424
 H         2.262888         2.218271        -1.215352
 H         1.940575         0.789676        -2.118911
 H         0.222289         0.282959        -0.244572
 H         2.258387        -1.525339        -1.207365
 H         1.745706        -0.630388         2.624600
 H         3.534651        -0.955206         2.237544
 H         2.161077         2.380430         1.549927
