19
Iteration:  1940charge 0 multiplicity 1
 C         4.770958         0.139503        -0.369997
 C         3.268289         0.115512        -0.368664
 C         2.262873         0.828571        -1.278331
 C         1.397661         0.278003        -0.084299
 C         2.323244        -1.025283        -0.121134
 O         2.538568        -1.558323         1.185681
 C         2.502178        -0.379098         1.997437
 C         2.465302         0.697596         0.900373
 O         2.565813         1.916055         1.577765
 H         4.946018        -0.867291        -0.024130
 H         5.303908         0.233400        -1.298387
 H         5.235983         0.772222         0.331318
 H         2.085038         1.971229        -1.524517
 H         2.009051         0.428108        -2.215241
 H         0.244107         0.050784         0.004164
 H         2.250320        -1.754755        -0.958950
 H         1.534904        -0.473013         2.554685
 H         3.255922        -0.266260         2.735241
 H         2.688324         2.672084         1.055532
