19
Iteration:  4539charge 0 multiplicity 1
 C         4.802353         0.155896        -0.485559
 C         3.343205         0.310670        -0.164182
 C         2.340973         1.175252        -0.955033
 C         1.440489         0.384832        -0.002078
 C         2.315311        -0.910301        -0.412215
 O         2.470073        -1.698122         0.716762
 C         2.453552        -0.698821         1.910221
 C         2.458772         0.576149         1.156442
 O         2.471491         1.781197         1.773545
 H         4.952384         0.403502        -1.495592
 H         5.410283         0.636417         0.318604
 H         5.211028        -0.841790        -0.331305
 H         2.492637         2.299404        -0.769193
 H         2.285702         0.846021        -2.035628
 H         0.306000         0.502028         0.136573
 H         2.114797        -1.440206        -1.354403
 H         1.545713        -0.976502         2.497260
 H         3.389125        -0.910050         2.514019
 H         2.474335         2.569412         1.079715
