19
Iteration:  3508charge 0 multiplicity 1
 C         4.835256         0.225454        -0.388228
 C         3.321458         0.318761        -0.273717
 C         2.257634         1.077336        -1.172803
 C         1.405304         0.440373        -0.074203
 C         2.375263        -0.832193        -0.331231
 O         2.319391        -1.741653         0.851783
 C         2.508459        -0.755382         1.817334
 C         2.426502         0.589803         1.084370
 O         2.566538         1.832335         1.867188
 H         5.092333         0.374148        -1.457987
 H         5.339508         0.893089         0.347934
 H         5.096770        -0.781833        -0.084860
 H         2.503021         2.158527        -1.201870
 H         2.169447         0.810835        -2.175834
 H         0.310300         0.367336        -0.117148
 H         2.187663        -1.388058        -1.290440
 H         1.913376        -1.088861         2.644606
 H         3.544982        -0.878356         2.206419
 H         3.202970         1.660847         2.660072
