19
Iteration:  4817charge 0 multiplicity 1
 C         4.866629         0.391375        -0.398782
 C         3.333406         0.335684        -0.291836
 C         2.160356         1.130497        -1.178176
 C         1.377866         0.363893        -0.110198
 C         2.256780        -0.878713        -0.274990
 O         2.431255        -1.797016         0.864806
 C         2.408240        -0.709199         1.913588
 C         2.582844         0.569065         0.979518
 O         2.666145         1.678119         1.909860
 H         5.020087         1.112627        -1.244673
 H         5.206463         0.670132         0.558864
 H         5.254765        -0.591516        -0.660983
 H         2.164227         2.201906        -1.032722
 H         1.996808         0.714808        -2.227545
 H         0.371061         0.222056         0.157052
 H         1.950524        -1.412557        -1.169303
 H         1.451528        -0.752741         2.525525
 H         3.219566        -0.865624         2.643236
 H         3.081593         2.505523         1.364272
