19
Iteration:  4148charge 0 multiplicity 1
 C         4.859048         0.215921        -0.332594
 C         3.358645         0.297593        -0.336744
 C         2.286939         1.143767        -1.109912
 C         1.359942         0.404917        -0.051728
 C         2.238417        -0.842811        -0.349779
 O         2.379756        -1.712547         0.768999
 C         2.482019        -0.760012         1.879623
 C         2.544982         0.614582         1.046678
 O         2.582728         1.663837         1.891398
 H         5.436657        -0.106450        -1.218012
 H         5.119819         1.223750        -0.070411
 H         5.220451        -0.303845         0.585330
 H         2.414648         2.265984        -0.972473
 H         2.263957         1.036508        -2.198794
 H         0.292819         0.653090         0.233830
 H         2.140289        -1.379070        -1.310171
 H         1.609436        -0.673747         2.573900
 H         3.371728        -1.014412         2.469150
 H         2.274008         2.521635         1.367095
