19
Iteration:  1680
 C         4.799482         0.159293        -0.427578
 C         3.322994         0.249391        -0.199566
 C         2.281800         0.830392        -1.079619
 C         1.338607         0.156504        -0.106915
 C         2.390513        -0.995852        -0.159018
 O         2.425747        -1.675172         1.152276
 C         2.459264        -0.443049         1.999855
 C         2.402859         0.666105         0.944767
 O         2.617919         2.032558         1.409463
 H         5.073820        -0.728928         0.098854
 H         5.155632         0.129320        -1.411928
 H         5.359239         0.965806         0.088403
 H         2.082898         1.907170        -1.016471
 H         2.348291         0.478406        -2.254683
 H         0.163181         0.240999        -0.154865
 H         2.372633        -1.828885        -0.881216
 H         1.603524        -0.330767         2.687220
 H         3.474712        -0.361420         2.479047
 H         2.823646         2.681836         0.693535
