19
Iteration:   417
 C         4.847160         0.081382        -0.310682
 C         3.349033         0.177991        -0.289480
 C         2.303270         0.735506        -1.274017
 C         1.341254         0.182184        -0.096288
 C         2.272136        -1.037169        -0.145459
 O         2.387255        -1.529846         1.143171
 C         2.629859        -0.390776         1.941193
 C         2.431615         0.767982         0.947892
 O         2.469312         2.001280         1.566722
 H         5.233770        -0.434445         0.612923
 H         5.071778        -0.473251        -1.209501
 H         5.368704         1.111611        -0.380318
 H         2.363997         1.840982        -1.333888
 H         2.358633         0.436885        -2.355356
 H         0.279647         0.411614        -0.044006
 H         2.307198        -1.875435        -0.972756
 H         1.943318        -0.511724         2.799161
 H         3.659257        -0.514181         2.378312
 H         2.710463         2.610496         0.850172
