19
Iteration:   877charge 0 multiplicity 1
 C         4.787004         0.158086        -0.400346
 C         3.300967         0.114245        -0.348753
 C         2.263074         0.845293        -1.170258
 C         1.392041         0.269498        -0.101650
 C         2.388812        -1.022199        -0.133215
 O         2.369946        -1.621476         1.144138
 C         2.641166        -0.437462         2.017902
 C         2.440923         0.684326         0.989800
 O         2.512138         1.988146         1.503912
 H         5.126042        -0.178179         0.611000
 H         5.040532        -0.679337        -1.127819
 H         5.230469         1.104070        -0.563473
 H         2.358039         2.012830        -1.252351
 H         2.161092         0.532523        -2.170250
 H         0.413393         0.466685        -0.239108
 H         2.264761        -1.888462        -0.828399
 H         1.873752        -0.419482         2.837925
 H         3.753623        -0.485229         2.307252
 H         2.197460         2.671790         0.794457
