19
Iteration:  3428
 C         4.804865         0.281032        -0.391109
 C         3.332323         0.380821        -0.212203
 C         2.300224         1.161277        -1.049187
 C         1.347092         0.368724        -0.062884
 C         2.256198        -0.872246        -0.349338
 O         2.377759        -1.709923         0.768074
 C         2.480199        -0.778820         1.891388
 C         2.488303         0.538601         1.090135
 O         2.655041         1.719114         1.815289
 H         5.122952        -0.525675        -1.067139
 H         5.096588         1.163986        -0.884131
 H         5.297495         0.176821         0.628442
 H         2.247717         2.231824        -0.826612
 H         2.238966         0.811814        -2.111804
 H         0.251059         0.346420         0.194644
 H         2.283252        -1.355692        -1.294876
 H         1.623847        -0.970965         2.555601
 H         3.424182        -1.089389         2.310367
 H         2.880914         2.450496         1.137020
