19
Iteration:  1299
 C         4.808005         0.100253        -0.359595
 C         3.285768         0.218938        -0.298995
 C         2.261415         0.812787        -1.266027
 C         1.341484         0.308969        -0.143995
 C         2.367354        -1.027892        -0.045347
 O         2.492318        -1.675988         1.199157
 C         2.554149        -0.415007         1.944138
 C         2.409641         0.744205         0.885568
 O         2.539836         1.967706         1.505976
 H         5.016292        -0.793825         0.238171
 H         5.184349        -0.071540        -1.342997
 H         5.352807         0.868007         0.198210
 H         2.315208         1.921608        -1.466212
 H         2.256610         0.365573        -2.263710
 H         0.378550         0.213231         0.245591
 H         2.355682        -1.806165        -0.874028
 H         1.806869        -0.242287         2.750699
 H         3.508914        -0.415103         2.507295
 H         2.080177         2.732846         1.111367
