19
Iteration:  4853
 C         4.794781         0.241307        -0.409402
 C         3.298496         0.243057        -0.193891
 C         2.279929         1.138697        -1.063195
 C         1.342457         0.352323        -0.175556
 C         2.268238        -0.822581        -0.340099
 O         2.387357        -1.710231         0.834377
 C         2.641866        -0.705011         1.896790
 C         2.431107         0.585881         1.072494
 O         2.612505         1.713638         1.867817
 H         5.046046         0.823291        -1.271932
 H         5.513999         0.831482         0.256523
 H         5.230967        -0.790823        -0.655104
 H         2.259201         2.269613        -0.930840
 H         2.267318         0.998831        -2.150059
 H         0.207411         0.137943        -0.122478
 H         2.111206        -1.384031        -1.301962
 H         1.974462        -0.907361         2.806323
 H         3.729163        -0.676225         2.145005
 H         2.082000         2.573511         1.524841
