19
Iteration:    74
 C         4.793186         0.077473        -0.446528
 C         3.326096         0.256137        -0.351785
 C         2.287337         0.823046        -1.260393
 C         1.284363         0.186914        -0.186090
 C         2.329346        -0.963082        -0.041374
 O         2.506393        -1.630742         1.228251
 C         2.452164        -0.505395         2.087178
 C         2.515925         0.741799         0.941342
 O         2.523452         2.035953         1.467142
 H         4.998017        -0.422021         0.448445
 H         5.168369        -0.520407        -1.325709
 H         5.380297         1.093134        -0.500571
 H         2.215198         2.018490        -1.360264
 H         2.171783         0.377714        -2.243452
 H         0.195812         0.147677        -0.010650
 H         2.312089        -1.734667        -0.819859
 H         1.474466        -0.266247         2.590962
 H         3.423012        -0.469637         2.626158
 H         3.422546         2.240583         1.536913
