19
Iteration:   868
 C         4.760150         0.146702        -0.359270
 C         3.273167         0.157334        -0.260109
 C         2.289891         0.830594        -1.254038
 C         1.398094         0.318076        -0.104904
 C         2.340623        -1.087250        -0.118550
 O         2.437708        -1.589946         1.152855
 C         2.618352        -0.470705         1.963868
 C         2.405518         0.703331         0.949034
 O         2.556611         1.970548         1.516564
 H         5.226769        -0.243665         0.539015
 H         5.215682        -0.509796        -1.196170
 H         5.173631         1.115403        -0.569359
 H         2.258260         1.970817        -1.268316
 H         1.992858         0.454037        -2.165920
 H         0.333598         0.291564         0.018927
 H         2.260042        -1.726994        -0.938912
 H         1.887347        -0.319124         2.772966
 H         3.595839        -0.584479         2.469084
 H         2.221128         2.631616         0.814990
