19
Iteration:  3148
 C         4.846781         0.161175        -0.390842
 C         3.347687         0.229609        -0.432412
 C         2.221045         1.089163        -1.070118
 C         1.385412         0.410135         0.014031
 C         2.235248        -0.900485        -0.293193
 O         2.388883        -1.710225         0.902098
 C         2.656794        -0.587976         1.887631
 C         2.508894         0.580101         1.032139
 O         2.465780         1.798958         1.734299
 H         5.353434         0.432481         0.558575
 H         5.434828        -0.739451        -0.691060
 H         5.094175         1.085669        -0.899947
 H         2.326763         2.272382        -1.109152
 H         2.022048         0.941540        -2.149408
 H         0.232251         0.536593         0.119749
 H         1.934956        -1.559489        -1.123621
 H         1.822933        -0.813764         2.599023
 H         3.715041        -0.732544         2.069930
 H         3.062482         1.717450         2.446150
