19
Iteration:  4891charge 0 multiplicity 1
 C         4.846850         0.148470        -0.355678
 C         3.317332         0.213305        -0.344906
 C         2.178090         1.226823        -0.948801
 C         1.487541         0.351875         0.084411
 C         2.272886        -0.793217        -0.399570
 O         2.430751        -1.700392         0.767326
 C         2.612205        -0.717960         1.875485
 C         2.563090         0.563760         1.081894
 O         2.470406         1.763611         1.708567
 H         5.097634         0.148680        -1.465770
 H         5.226937         0.972227         0.248107
 H         5.241907        -0.721651         0.143659
 H         2.317670         2.267705        -0.701959
 H         1.908951         1.172443        -2.029538
 H         0.424389         0.266823         0.271468
 H         2.034435        -1.296137        -1.313286
 H         1.789271        -0.749506         2.557459
 H         3.515562        -0.950217         2.457815
 H         1.796933         2.300417         1.273475
