19
Iteration:  4558
 C         4.813652         0.169050        -0.412741
 C         3.363468         0.298067        -0.241089
 C         2.319050         1.255086        -0.978821
 C         1.348013         0.424986        -0.026495
 C         2.304464        -0.781102        -0.286564
 O         2.490159        -1.792647         0.793675
 C         2.458738        -0.893646         1.866709
 C         2.450766         0.517217         1.111632
 O         2.485896         1.866064         1.707644
 H         5.058396         0.148481        -1.496033
 H         5.419969         0.988601         0.005887
 H         5.211671        -0.801130        -0.009809
 H         2.270601         2.347109        -0.697156
 H         2.307953         1.195749        -2.098023
 H         0.267790         0.322010        -0.000236
 H         2.216607        -1.346315        -1.158085
 H         1.607282        -0.941638         2.556147
 H         3.412150        -1.148503         2.404504
 H         3.012031         2.525038         1.056395
