19
Iteration:  4810charge 0 multiplicity 1
 C         4.972470         0.381631        -0.394804
 C         3.322034         0.302792        -0.270762
 C         2.110459         1.124617        -1.142788
 C         1.439452         0.326505        -0.048764
 C         2.181628        -0.912260        -0.304017
 O         2.447122        -1.721479         0.817151
 C         2.377243        -0.728767         1.902610
 C         2.561570         0.508394         1.056320
 O         2.666664         1.732907         1.833927
 H         4.932332         1.195964        -1.077104
 H         5.259926         0.913473         0.591034
 H         5.426470        -0.598567        -0.769508
 H         2.127321         2.243050        -1.042020
 H         1.965877         0.704239        -2.118836
 H         0.306247         0.471571         0.182523
 H         1.960435        -1.567367        -1.185437
 H         1.371346        -0.818343         2.365921
 H         3.205526        -0.950334         2.586373
 H         3.154437         2.521749         1.451773
