19
Iteration:  4872
 C         4.803776         0.206549        -0.419571
 C         3.337136         0.404636        -0.308775
 C         2.299459         1.242998        -0.986902
 C         1.391538         0.384105         0.016890
 C         2.260521        -0.972880        -0.321084
 O         2.384561        -1.749096         0.826031
 C         2.651255        -0.795707         1.844234
 C         2.524714         0.555524         1.025107
 O         2.489783         1.806764         1.779240
 H         5.334422         0.485991        -1.332719
 H         5.257859         0.711628         0.397961
 H         5.045253        -0.839332        -0.188113
 H         2.400065         2.328004        -0.942778
 H         2.053775         1.073383        -2.075362
 H         0.383907         0.649637         0.297501
 H         2.101582        -1.645646        -1.185726
 H         1.899950        -0.900586         2.670664
 H         3.643181        -0.968857         2.264652
 H         1.773621         2.221356         1.184921
