19
Iteration:  4160charge 0 multiplicity 1
 C         4.801407         0.234043        -0.355855
 C         3.269088         0.342597        -0.237443
 C         2.349492         1.126109        -1.144601
 C         1.412146         0.469826        -0.114046
 C         2.260256        -0.851356        -0.311781
 O         2.424209        -1.706491         0.797582
 C         2.493483        -0.759048         1.823428
 C         2.462925         0.555918         1.038776
 O         2.590033         1.702470         1.956720
 H         5.051196        -0.065360        -1.428369
 H         5.414216         1.063126        -0.043268
 H         5.073040        -0.659129         0.206195
 H         2.473293         2.237720        -1.092405
 H         2.218240         0.710039        -2.169388
 H         0.292518         0.440748        -0.052421
 H         2.234900        -1.494626        -1.248878
 H         1.587923        -0.968314         2.412815
 H         3.381764        -0.846562         2.435330
 H         2.562682         2.570565         1.510082
