19
Iteration:  2519charge 0 multiplicity 1
 C         4.858087         0.156664        -0.403050
 C         3.352272         0.269640        -0.263933
 C         2.309287         0.847074        -1.231790
 C         1.404209         0.313740        -0.110005
 C         2.255567        -0.955433        -0.186249
 O         2.342637        -1.628848         1.056793
 C         2.691142        -0.606197         1.978354
 C         2.409774         0.703950         0.958619
 O         2.493473         1.974543         1.679606
 H         5.156976         0.585593        -1.415182
 H         5.465278         0.370632         0.535813
 H         4.927068        -1.002607        -0.458227
 H         2.290783         1.908349        -1.649269
 H         2.464946         0.329086        -2.167172
 H         0.233352         0.208393        -0.120924
 H         1.976700        -1.710660        -0.970387
 H         2.059081        -0.643369         2.895357
 H         3.739611        -0.613868         2.481696
 H         2.044485         2.636690         1.164191
