19
Iteration:  4101charge 0 multiplicity 1
 C         4.763948         0.301017        -0.301104
 C         3.253761         0.298512        -0.149453
 C         2.418985         1.253035        -0.996041
 C         1.401890         0.376024        -0.149255
 C         2.243746        -0.869683        -0.399128
 O         2.289858        -1.789530         0.732531
 C         2.564766        -0.810840         1.889743
 C         2.423297         0.511592         1.133994
 O         2.722433         1.768913         1.760972
 H         4.989582        -0.470869        -1.001133
 H         4.985387         1.323247        -0.742836
 H         5.436448         0.258275         0.618516
 H         2.264864         2.408911        -1.008020
 H         2.409808         0.881325        -2.023092
 H         0.305453         0.139681        -0.267702
 H         2.139842        -1.379249        -1.316026
 H         1.763564        -0.867444         2.669913
 H         3.620624        -0.781378         2.373809
 H         2.147817         2.435436         1.430403
