19
Iteration:  4107charge 0 multiplicity 1
 C         4.793260         0.327500        -0.286983
 C         3.279067         0.289933        -0.190290
 C         2.424725         1.317294        -0.983592
 C         1.334085         0.320866        -0.113085
 C         2.312292        -0.836891        -0.339048
 O         2.255541        -1.808351         0.747002
 C         2.562471        -0.779420         1.889996
 C         2.440146         0.465393         1.075921
 O         2.718266         1.783417         1.732291
 H         5.137204        -0.475938        -1.029324
 H         5.059556         1.247938        -0.756539
 H         5.276167         0.097072         0.628416
 H         2.083919         2.284344        -0.830056
 H         2.408001         0.932410        -2.023596
 H         0.248012         0.357112        -0.223622
 H         2.133667        -1.394742        -1.337788
 H         1.805558        -0.829726         2.645125
 H         3.498684        -1.165017         2.241853
 H         2.122019         2.426570         1.356985
