19
Iteration:  2618charge 0 multiplicity 1
 C         4.918752         0.226948        -0.454233
 C         3.325330         0.214218        -0.326671
 C         2.232579         0.877415        -1.238150
 C         1.379315         0.317871        -0.153601
 C         2.244533        -0.994332        -0.185127
 O         2.373775        -1.670234         1.088183
 C         2.545041        -0.570877         1.969665
 C         2.504121         0.708483         0.962438
 O         2.522517         1.898905         1.737896
 H         5.217452        -0.491656        -1.295760
 H         5.282055         1.277570        -0.632476
 H         5.342713         0.070092         0.578137
 H         2.254147         2.073277        -1.252748
 H         2.128464         0.520179        -2.286476
 H         0.242731         0.227860         0.030590
 H         1.919881        -1.643211        -0.966650
 H         1.630684        -0.588020         2.615204
 H         3.560856        -0.506012         2.542261
 H         3.381041         2.386495         1.537746
