19
Iteration:  1435
 C         4.832847         0.036787        -0.360126
 C         3.315921         0.260103        -0.289642
 C         2.230926         0.902172        -1.148842
 C         1.386056         0.159337        -0.133180
 C         2.306921        -1.038195        -0.122820
 O         2.512509        -1.557614         1.147355
 C         2.454666        -0.369176         2.008374
 C         2.503814         0.680535         0.979028
 O         2.527659         1.931185         1.445862
 H         5.406963        -0.591369         0.261715
 H         5.024705        -0.213994        -1.400938
 H         5.244441         0.975687        -0.319439
 H         2.169539         1.921573        -1.285032
 H         2.336430         0.470839        -2.232027
 H         0.294485         0.211543         0.096341
 H         2.233741        -1.740809        -0.908160
 H         1.632931        -0.460324         2.760540
 H         3.389170        -0.316289         2.578410
 H         2.356108         2.535169         0.743130
