19
Iteration:   301
 C         4.750201         0.205821        -0.353270
 C         3.254793         0.097349        -0.323772
 C         2.300207         0.792739        -1.281043
 C         1.401777         0.177553        -0.136689
 C         2.301597        -1.084853        -0.092454
 O         2.342991        -1.518857         1.192960
 C         2.542330        -0.398263         1.993762
 C         2.562870         0.717485         0.936994
 O         2.614087         1.974585         1.524263
 H         5.269777        -0.376976         0.474816
 H         5.264347        -0.151822        -1.292538
 H         5.093952         1.204898        -0.212619
 H         2.354222         1.892061        -1.518489
 H         2.371383         0.259803        -2.259025
 H         0.294456         0.164706        -0.067994
 H         2.266270        -1.877015        -0.833435
 H         1.743354        -0.424641         2.750099
 H         3.488528        -0.470000         2.507118
 H         2.276575         2.741313         1.033521
