19
Iteration:  2404charge 0 multiplicity 1
 C         4.818201         0.226759        -0.343509
 C         3.287456         0.141512        -0.391350
 C         2.250969         0.880360        -1.283463
 C         1.446830         0.255766        -0.143403
 C         2.262646        -1.030853        -0.107296
 O         2.333026        -1.607445         1.175142
 C         2.611171        -0.416688         1.891473
 C         2.469481         0.656215         0.923496
 O         2.577272         1.859860         1.665481
 H         5.169255         1.231346        -0.103883
 H         5.111688        -0.434023         0.500208
 H         5.481629        -0.077582        -1.191434
 H         2.419303         1.949033        -1.080384
 H         2.011218         0.571131        -2.334222
 H         0.368628         0.228532         0.002671
 H         2.217658        -1.705434        -1.025192
 H         1.901818        -0.317431         2.754123
 H         3.595771        -0.356191         2.350861
 H         2.495475         2.654566         1.104298
