19
Iteration:   581charge 0 multiplicity 1
 C         4.781083         0.081825        -0.340791
 C         3.265445         0.160873        -0.297015
 C         2.245678         0.914283        -1.161511
 C         1.389275         0.269293        -0.118141
 C         2.388064        -1.020827        -0.173952
 O         2.581773        -1.657543         1.213460
 C         2.446506        -0.462286         2.005559
 C         2.378371         0.650788         0.962128
 O         2.603141         2.037495         1.381938
 H         5.145189        -0.764757         0.321128
 H         5.114307        -0.023640        -1.379809
 H         5.217436         1.003208         0.089632
 H         2.112128         2.054628        -1.093342
 H         2.139020         0.484923        -2.091663
 H         0.371597         0.388106         0.022286
 H         2.215302        -1.848705        -0.955941
 H         1.506122        -0.394185         2.549329
 H         3.289558        -0.457574         2.701842
 H         2.309514         2.696955         0.769880
