19
Iteration:  3876charge 0 multiplicity 1
 C         4.835536         0.180190        -0.461808
 C         3.395641         0.259139        -0.168242
 C         2.352686         1.210569        -1.019464
 C         1.452473         0.346302        -0.065764
 C         2.335399        -0.819264        -0.352159
 O         2.330424        -1.711010         0.806347
 C         2.513692        -0.771076         1.879073
 C         2.384724         0.580417         1.106950
 O         2.504240         1.762638         1.785833
 H         4.881999         0.289913        -1.584551
 H         5.286101         1.124301        -0.134616
 H         5.271915        -0.774496        -0.042502
 H         2.232625         2.275669        -0.742631
 H         2.348600         1.105620        -2.216206
 H         0.329280         0.257892         0.030464
 H         1.995877        -1.329538        -1.274275
 H         1.769446        -0.856058         2.720266
 H         3.491824        -0.896011         2.402864
 H         2.894937         2.478262         1.321472
