19
Iteration:   251charge 0 multiplicity 1
 C         4.726090         0.091352        -0.372644
 C         3.281317         0.127833        -0.254012
 C         2.338625         0.818035        -1.222829
 C         1.425766         0.190233        -0.121817
 C         2.313026        -0.994453        -0.173810
 O         2.378585        -1.620228         1.191521
 C         2.589385        -0.402179         2.002017
 C         2.539511         0.662062         0.975667
 O         2.465370         2.078832         1.428094
 H         5.128909        -0.160189         0.553564
 H         5.214314        -0.514579        -1.138166
 H         5.256432         1.138894        -0.488264
 H         2.265518         1.916803        -1.050798
 H         1.981112         0.464449        -2.161532
 H         0.390047         0.040131         0.108235
 H         2.279825        -1.636755        -1.049231
 H         1.779345        -0.272308         2.773704
 H         3.590143        -0.426875         2.544937
 H         3.141907         2.545218         0.977314
