19
Iteration:  1462
 C         4.769871         0.060296        -0.352757
 C         3.294059         0.201759        -0.373989
 C         2.242709         0.919088        -1.147622
 C         1.417660         0.222594        -0.101169
 C         2.383157        -1.060345        -0.142486
 O         2.522140        -1.677725         1.151363
 C         2.448789        -0.444313         2.101035
 C         2.452136         0.702486         1.015742
 O         2.559623         2.075042         1.379370
 H         5.228214        -0.826693         0.146206
 H         5.040546         0.059792        -1.429320
 H         5.303355         1.025253         0.102470
 H         2.499242         2.021620        -1.302381
 H         2.116356         0.507514        -2.068756
 H         0.270179         0.091449        -0.157291
 H         2.073380        -1.799900        -0.967890
 H         1.634492        -0.654772         2.755336
 H         3.380265        -0.273381         2.709283
 H         2.153562         2.621684         0.712716
