19
Iteration:  4012charge 0 multiplicity 1
 C         4.762377         0.192155        -0.424595
 C         3.298569         0.278953        -0.153510
 C         2.459482         1.237840        -0.990708
 C         1.372953         0.430680        -0.152525
 C         2.279413        -0.872620        -0.330258
 O         2.430225        -1.698942         0.779614
 C         2.516339        -0.822221         1.915658
 C         2.405006         0.537645         1.095548
 O         2.512852         1.778785         1.781079
 H         4.759472         0.189465        -1.544649
 H         5.274119         1.198558        -0.255923
 H         5.356602        -0.677652        -0.160862
 H         2.222033         2.272923        -0.557947
 H         2.578806         1.202950        -2.088048
 H         0.291947         0.493110        -0.010341
 H         2.317617        -1.638030        -1.142293
 H         1.749552        -1.129094         2.684168
 H         3.534088        -1.032799         2.429738
 H         2.794870         2.394074         1.137413
