19
Iteration:  4697
 C         4.796226         0.178304        -0.426124
 C         3.289770         0.289185        -0.226499
 C         2.302549         1.189315        -1.061814
 C         1.386585         0.374588        -0.007941
 C         2.319277        -0.825577        -0.367257
 O         2.506288        -1.696385         0.762756
 C         2.514585        -0.773164         1.823229
 C         2.382235         0.561691         1.106718
 O         2.606640         1.781211         1.841596
 H         4.983640        -0.015857        -1.539091
 H         5.335605         1.068322        -0.170132
 H         5.252652        -0.691144         0.074404
 H         2.390250         2.245600        -0.906603
 H         2.190415         0.839484        -2.116870
 H         0.357505         0.330498         0.257422
 H         2.051905        -1.434181        -1.209112
 H         1.617542        -0.902961         2.520113
 H         3.402503        -0.664976         2.453782
 H         1.827286         2.277700         1.855876
