19
Iteration:  2417
 C         4.850582         0.229533        -0.314101
 C         3.337742         0.228437        -0.307089
 C         2.244425         0.889959        -1.260962
 C         1.340553         0.270266        -0.131590
 C         2.255333        -1.046740        -0.221840
 O         2.390163        -1.627946         1.142568
 C         2.558280        -0.493191         2.012038
 C         2.478484         0.645802         0.950059
 O         2.632851         1.893134         1.589681
 H         5.148528         1.263690        -0.442854
 H         5.328446        -0.109938         0.648604
 H         5.108851        -0.311544        -1.204427
 H         2.169465         1.995048        -1.388687
 H         2.118409         0.536412        -2.198140
 H         0.306370         0.425157        -0.112027
 H         1.969554        -1.980837        -0.850431
 H         1.722487        -0.387439         2.743076
 H         3.569235        -0.562027         2.507738
 H         2.511336         2.541646         0.842824
