19
Iteration:  4566charge 0 multiplicity 1
 C         4.809447         0.189483        -0.417144
 C         3.316376         0.351237        -0.243573
 C         2.278794         1.244555        -0.966845
 C         1.375943         0.404335        -0.075540
 C         2.322970        -0.863824        -0.316904
 O         2.450560        -1.772712         0.763318
 C         2.487139        -0.848919         1.920683
 C         2.490718         0.597666         1.105477
 O         2.506476         1.804207         1.714123
 H         5.163062        -0.116304        -1.500688
 H         5.304459         1.006643         0.096539
 H         5.141982        -0.612273         0.296474
 H         2.279935         2.191543        -0.536811
 H         2.324691         1.167442        -2.036480
 H         0.315801         0.359604        -0.093131
 H         2.068430        -1.429623        -1.237268
 H         1.622714        -1.005815         2.566099
 H         3.392731        -1.045557         2.472301
 H         3.195671         2.427811         1.231087
