19
Iteration:  2665charge 0 multiplicity 1
 C         4.890048         0.120985        -0.482401
 C         3.293329         0.207879        -0.252284
 C         2.320219         1.072312        -1.064871
 C         1.378096         0.267160        -0.052883
 C         2.283186        -0.994729        -0.203276
 O         2.386413        -1.713441         1.004042
 C         2.595452        -0.619421         2.004299
 C         2.460679         0.613546         1.090049
 O         2.426989         2.061462         1.443520
 H         5.005142        -0.884276        -0.911828
 H         5.096629         0.848822        -1.285638
 H         5.540301         0.427669         0.388912
 H         2.136352         2.079855        -0.889496
 H         2.130103         0.753364        -2.164836
 H         0.333755         0.322922        -0.055135
 H         2.408109        -1.643266        -0.959746
 H         1.885458        -0.636481         2.822299
 H         3.685124        -0.693209         2.288046
 H         3.204704         2.191222         2.112785
