19
Iteration:  4368
 C         4.821518         0.160727        -0.496991
 C         3.345871         0.328767        -0.307022
 C         2.386770         1.220520        -1.087828
 C         1.398910         0.417770        -0.061636
 C         2.327555        -0.846463        -0.337431
 O         2.331032        -1.702913         0.818312
 C         2.560808        -0.708172         1.872754
 C         2.559580         0.580621         1.051863
 O         2.387175         1.645536         1.992394
 H         5.064785        -0.559794        -1.379592
 H         5.297593         1.060020        -0.887330
 H         5.420961        -0.218663         0.316696
 H         2.590763         2.335794        -0.996876
 H         2.295378         1.117655        -2.208563
 H         0.330382         0.330580         0.199789
 H         2.226755        -1.589171        -1.224142
 H         1.642001        -0.744821         2.517862
 H         3.446127        -0.762267         2.539648
 H         2.477069         2.440621         1.528687
