19
Iteration:  4185charge 0 multiplicity 1
 C         4.818724         0.122792        -0.499772
 C         3.295364         0.350133        -0.207311
 C         2.337882         1.129494        -1.060500
 C         1.348146         0.339163        -0.173818
 C         2.369113        -0.799398        -0.344387
 O         2.418916        -1.660386         0.784337
 C         2.437525        -0.669937         1.928740
 C         2.369409         0.571302         1.072903
 O         2.560404         1.704344         1.955235
 H         5.109598         0.361092        -1.595937
 H         5.459317         0.657385         0.327157
 H         5.230311        -0.866476        -0.293240
 H         2.389329         2.192951        -0.819458
 H         2.487468         0.998011        -2.180850
 H         0.277804         0.334631        -0.090751
 H         2.593695        -1.390740        -1.308837
 H         1.651705        -0.944285         2.616733
 H         3.414170        -0.693763         2.416352
 H         3.096217         2.466052         1.485283
