19
Iteration:   751
 C         4.882448         0.110859        -0.385488
 C         3.319071         0.197341        -0.291702
 C         2.280690         0.826492        -1.278919
 C         1.372305         0.255912        -0.134587
 C         2.284138        -1.031836        -0.146307
 O         2.400743        -1.540362         1.201527
 C         2.603948        -0.466033         2.012341
 C         2.479316         0.706151         0.920850
 O         2.490527         1.962806         1.555938
 H         5.321700        -0.761339         0.051774
 H         5.206153         0.142451        -1.421079
 H         5.288565         1.061892         0.026428
 H         2.143940         1.857479        -1.325352
 H         2.240003         0.341822        -2.387019
 H         0.230494         0.194555         0.127357
 H         2.237661        -1.863198        -0.758370
 H         1.883150        -0.377714         2.854615
 H         3.609964        -0.688622         2.461283
 H         2.017215         2.498321         0.877133
