19
Iteration:  2437charge 0 multiplicity 1
 C         4.774541         0.214536        -0.394710
 C         3.256793         0.231783        -0.205440
 C         2.280202         0.852130        -1.142770
 C         1.393251         0.249059        -0.049557
 C         2.322069        -0.928101        -0.140193
 O         2.430958        -1.668942         1.038443
 C         2.452085        -0.564750         1.991056
 C         2.440547         0.655224         1.033050
 O         2.676464         1.968998         1.445430
 H         5.099447         1.176486        -0.746973
 H         5.235806         0.157067         0.641042
 H         5.158870        -0.635299        -0.999971
 H         2.405908         1.982192        -1.196062
 H         2.209813         0.472618        -2.252214
 H         0.339136         0.134858         0.035433
 H         2.420255        -1.576798        -1.103297
 H         1.499860        -0.600211         2.562525
 H         3.368481        -0.536399         2.553169
 H         2.613983         2.451217         0.646136
