19
Iteration:  3221charge 0 multiplicity 1
 C         4.749983         0.267275        -0.487702
 C         3.324394         0.216024        -0.308478
 C         2.244942         1.258070        -0.971768
 C         1.438409         0.362551         0.002752
 C         2.259489        -0.929646        -0.310720
 O         2.452846        -1.737127         0.876644
 C         2.501458        -0.738896         1.952286
 C         2.535018         0.514862         1.016350
 O         2.628487         1.805709         1.670543
 H         5.080412         1.201698         0.007912
 H         5.270437        -0.430312         0.222936
 H         5.255547         0.044276        -1.514058
 H         2.388706         2.294330        -0.645669
 H         2.080131         1.099117        -2.052128
 H         0.271960         0.382942         0.207149
 H         2.042746        -1.432616        -1.245421
 H         1.520691        -0.661725         2.510837
 H         3.346018        -1.035847         2.679971
 H         1.909829         2.373997         1.331174
