19
Iteration:  2627charge 0 multiplicity 1
 C         4.880818         0.225521        -0.481161
 C         3.377620         0.212038        -0.289554
 C         2.228164         0.983625        -1.248587
 C         1.408026         0.289310        -0.118618
 C         2.230993        -1.005261        -0.133112
 O         2.353522        -1.652103         1.074125
 C         2.549091        -0.489528         1.944178
 C         2.495902         0.642726         0.986214
 O         2.469232         1.838934         1.697643
 H         5.414083        -0.537496        -1.071222
 H         5.211973         1.185471        -0.933322
 H         5.387999         0.005901         0.463260
 H         2.600094         2.086877        -1.342488
 H         1.971377         0.500464        -2.152640
 H         0.254109         0.358213        -0.031938
 H         2.236602        -1.793051        -1.019438
 H         1.845780        -0.364601         2.820801
 H         3.597658        -0.702174         2.366733
 H         3.358066         2.313254         1.618863
