19
Iteration:  2630charge 0 multiplicity 1
 C         4.861876         0.227641        -0.482288
 C         3.364938         0.210485        -0.292110
 C         2.253177         0.996739        -1.232468
 C         1.423133         0.290147        -0.092235
 C         2.249639        -1.008183        -0.157650
 O         2.338601        -1.643457         1.077576
 C         2.557364        -0.472104         1.939533
 C         2.491124         0.605370         0.989820
 O         2.454008         1.829352         1.679565
 H         5.373359        -0.624291        -1.085533
 H         5.176532         1.165362        -0.999817
 H         5.425079         0.032996         0.495758
 H         2.539293         2.100740        -1.339782
 H         1.984340         0.511059        -2.224833
 H         0.302250         0.417907        -0.020086
 H         2.320483        -1.690223        -0.872843
 H         1.926211        -0.336394         2.838747
 H         3.600086        -0.705240         2.365798
 H         3.343529         2.295136         1.635584
