19
Iteration:  2759charge 0 multiplicity 1
 C         4.803366         0.300160        -0.440318
 C         3.341359         0.197765        -0.309463
 C         2.337986         1.041645        -1.104342
 C         1.435949         0.307789        -0.050253
 C         2.198669        -1.010596        -0.184203
 O         2.296243        -1.740084         1.042145
 C         2.591754        -0.642216         1.940799
 C         2.592700         0.624675         1.036207
 O         2.480054         1.949284         1.534012
 H         5.261066        -0.184452         0.429534
 H         5.125595        -0.238937        -1.327103
 H         5.015645         1.326151        -0.584399
 H         2.380291         2.145239        -1.012295
 H         2.155992         0.717643        -2.112237
 H         0.331174         0.233419         0.061880
 H         2.127871        -1.754105        -1.103163
 H         1.802758        -0.593140         2.698132
 H         3.523029        -0.881742         2.350711
 H         3.328745         2.394928         1.692950
