19
Iteration:  3233charge 0 multiplicity 1
 C         4.851104         0.343935        -0.422523
 C         3.287901         0.178229        -0.384896
 C         2.264907         1.151962        -0.958298
 C         1.467353         0.391341         0.009843
 C         2.170849        -0.907495        -0.346565
 O         2.393998        -1.753110         0.886276
 C         2.514428        -0.703420         1.850388
 C         2.620035         0.527887         1.102801
 O         2.598920         1.776950         1.720500
 H         4.996266         1.453839        -0.562298
 H         5.267764        -0.215179         0.447424
 H         5.263860        -0.003014        -1.461423
 H         2.438848         2.248416        -0.739743
 H         1.906819         1.181134        -1.980192
 H         0.279247         0.489859         0.301323
 H         1.968152        -1.700959        -1.032509
 H         1.569265        -0.754238         2.467557
 H         3.419939        -0.808875         2.571801
 H         1.995452         2.271382         1.044990
