19
Iteration:  1341charge 0 multiplicity 1
 C         4.807715         0.178701        -0.361009
 C         3.296351         0.189001        -0.301738
 C         2.273159         0.895076        -1.183289
 C         1.357851         0.205152        -0.043364
 C         2.336300        -1.016096        -0.116017
 O         2.482368        -1.652600         1.204386
 C         2.423251        -0.462436         1.988578
 C         2.472482         0.634152         0.926027
 O         2.637231         1.975819         1.378212
 H         5.304953        -0.142421         0.593389
 H         5.176218        -0.462810        -1.203805
 H         5.150059         1.304132        -0.424176
 H         2.359916         2.118569        -1.178018
 H         2.167751         0.700207        -2.215465
 H         0.298962         0.292790        -0.018075
 H         2.235868        -1.839849        -0.813404
 H         1.544571        -0.492461         2.612342
 H         3.275039        -0.298632         2.691947
 H         2.077460         2.507248         0.699636
