19
Iteration:  3422charge 0 multiplicity 1
 C         4.809215         0.287694        -0.387688
 C         3.316000         0.354051        -0.235277
 C         2.272804         1.147366        -1.104924
 C         1.382679         0.393294        -0.002245
 C         2.286379        -0.873058        -0.347922
 O         2.363541        -1.723682         0.738212
 C         2.509526        -0.813085         1.904184
 C         2.462953         0.570693         1.112346
 O         2.617175         1.713394         1.837874
 H         5.141623        -0.591584        -0.968057
 H         5.173795         1.285193        -0.850564
 H         5.414919         0.215723         0.489151
 H         2.307291         2.272859        -1.075575
 H         2.275079         0.771915        -2.109428
 H         0.319107         0.593685         0.093356
 H         2.115129        -1.484401        -1.304900
 H         1.584603        -0.797244         2.507841
 H         3.506803        -0.935748         2.437818
 H         3.093692         2.366593         1.279131
