19
Iteration:  3569
 C         4.871697         0.186961        -0.404909
 C         3.317255         0.368071        -0.182375
 C         2.287667         1.172090        -1.028404
 C         1.402021         0.395163        -0.016687
 C         2.315828        -0.884321        -0.362870
 O         2.383299        -1.760615         0.753000
 C         2.408038        -0.845779         1.951777
 C         2.424858         0.560432         1.171755
 O         2.592786         1.872327         1.687615
 H         5.289940         0.810974        -1.213326
 H         5.576990         0.500302         0.366633
 H         5.110061        -0.912605        -0.697307
 H         2.350483         2.268572        -0.910216
 H         2.213865         0.896211        -2.152298
 H         0.325528         0.411389         0.256355
 H         2.295699        -1.316936        -1.299153
 H         1.534478        -1.086834         2.632216
 H         3.395386        -0.818531         2.418567
 H         3.058431         2.370390         0.985867
