19
Iteration:  1589
 C         4.821354         0.132214        -0.376932
 C         3.287940         0.198484        -0.241557
 C         2.279945         0.907495        -1.194210
 C         1.385823         0.203260        -0.071471
 C         2.373568        -1.028672        -0.144329
 O         2.526084        -1.597319         1.169327
 C         2.411355        -0.451628         1.979830
 C         2.427805         0.686657         0.906827
 O         2.590257         1.949546         1.464670
 H         5.305687        -0.232573         0.533863
 H         4.912579        -0.708494        -1.128140
 H         5.313328         0.996752        -0.792973
 H         2.303794         1.976681        -1.200756
 H         2.123543         0.486670        -2.295423
 H         0.308096         0.202009         0.184164
 H         2.181865        -1.789633        -0.886614
 H         1.482984        -0.199260         2.581437
 H         3.322745        -0.491991         2.588670
 H         2.141449         2.697094         0.952355
