19
Iteration:   896charge 0 multiplicity 1
 C         4.901940         0.085782        -0.467302
 C         3.317286         0.191768        -0.263507
 C         2.330358         0.956803        -1.190935
 C         1.409796         0.196905        -0.099478
 C         2.259879        -1.026383        -0.156785
 O         2.346355        -1.576538         1.209426
 C         2.651734        -0.467779         2.035381
 C         2.449905         0.669622         0.966080
 O         2.436866         1.956468         1.477981
 H         5.436382        -0.072178         0.510951
 H         5.277767        -0.664782        -1.127625
 H         5.279987         1.063224        -0.832226
 H         2.243534         2.022831        -1.163750
 H         2.075786         0.749829        -2.298650
 H         0.366489        -0.046501         0.210295
 H         2.169306        -1.741606        -1.060194
 H         1.927307        -0.269212         2.846868
 H         3.697563        -0.599085         2.370447
 H         2.240374         2.544634         0.646212
