19
Iteration:  1201
 C         4.827948         0.169080        -0.373775
 C         3.284992         0.173806        -0.299947
 C         2.140554         0.877781        -1.247716
 C         1.420573         0.194234        -0.123033
 C         2.343604        -1.065850        -0.109205
 O         2.497221        -1.596605         1.191482
 C         2.425012        -0.421220         2.005110
 C         2.445348         0.696967         0.916203
 O         2.681121         1.954559         1.506980
 H         5.256413        -0.385449         0.434560
 H         5.157797        -0.237789        -1.286786
 H         5.124803         1.202109        -0.238630
 H         2.173381         1.908299        -1.297152
 H         2.239315         0.385232        -2.250705
 H         0.277283         0.127983        -0.034686
 H         2.231944        -1.856845        -0.861386
 H         1.443354        -0.570136         2.534641
 H         3.246147        -0.139887         2.708388
 H         2.450229         2.687035         0.883724
