19
Iteration:  1156
 C         4.848349         0.161687        -0.352895
 C         3.372366         0.129528        -0.257322
 C         2.271031         0.800221        -1.281774
 C         1.343999         0.251814        -0.091700
 C         2.325738        -1.004440        -0.135358
 O         2.354377        -1.627513         1.165583
 C         2.664031        -0.428902         1.954867
 C         2.399578         0.710863         0.962302
 O         2.505780         1.985809         1.530163
 H         5.429357         0.123790         0.513154
 H         5.138375        -0.578528        -1.054924
 H         4.981721         1.177043        -0.795482
 H         2.300607         1.865434        -1.179265
 H         2.071310         0.441138        -2.307872
 H         0.244560         0.320300         0.063270
 H         2.214850        -1.785421        -0.854980
 H         2.014441        -0.356545         2.864148
 H         3.697262        -0.676249         2.280574
 H         2.542389         2.632144         0.743215
