19
Iteration:  2106
 C         4.832713         0.188804        -0.387704
 C         3.312874         0.172264        -0.317230
 C         2.215508         0.922171        -1.212202
 C         1.421556         0.231010        -0.096351
 C         2.285164        -1.031132        -0.156738
 O         2.428734        -1.626386         1.195740
 C         2.487450        -0.500591         2.046463
 C         2.502300         0.644222         0.953988
 O         2.606326         1.972955         1.430013
 H         5.179077        -0.365924         0.499241
 H         5.335589        -0.133910        -1.259142
 H         5.155476         1.216821        -0.243973
 H         2.426892         2.114702        -1.245785
 H         1.977762         0.413227        -2.070505
 H         0.278084         0.398244         0.034665
 H         2.063644        -1.784462        -0.836363
 H         1.655714        -0.540890         2.841283
 H         3.413894        -0.586834         2.618611
 H         2.368719         2.547071         0.662232
