19
Iteration:  2004
 C         4.822942         0.074372        -0.520952
 C         3.364268         0.121545        -0.260102
 C         2.340021         0.980194        -1.136519
 C         1.421246         0.274953        -0.165497
 C         2.348304        -0.967280        -0.147635
 O         2.362801        -1.608878         1.224359
 C         2.623875        -0.486336         2.060815
 C         2.393666         0.683585         0.996792
 O         2.453801         1.953584         1.457712
 H         5.274571        -0.327492         0.375315
 H         5.147644        -0.538875        -1.439511
 H         5.191201         1.058589        -0.680444
 H         2.228665         2.107392        -1.154601
 H         2.191646         0.693311        -2.172013
 H         0.354711         0.026759        -0.090884
 H         2.314017        -1.947407        -0.826083
 H         1.797337        -0.522090         2.800196
 H         3.602786        -0.490238         2.557449
 H         2.160393         2.600769         0.776520
