19
Iteration:  3738charge 0 multiplicity 1
 C         4.837131         0.233728        -0.365349
 C         3.375325         0.365761        -0.272256
 C         2.271051         1.053449        -1.089098
 C         1.401489         0.372049        -0.048761
 C         2.290168        -0.736835        -0.309121
 O         2.287022        -1.730968         0.698827
 C         2.500775        -0.711580         1.875593
 C         2.489697         0.622005         1.057956
 O         2.596333         1.681738         1.929064
 H         5.130198        -0.739283        -0.887900
 H         5.508917         0.880059        -0.990702
 H         5.317011         0.149007         0.600750
 H         2.273608         2.221744        -1.129768
 H         2.310969         0.700839        -2.084057
 H         0.381206         0.266007         0.136029
 H         2.259326        -1.346066        -1.293282
 H         1.783400        -1.000838         2.605681
 H         3.463474        -0.950215         2.333641
 H         2.547006         2.565445         1.452661
