19
Iteration:  1288charge 0 multiplicity 1
 C         4.817042         0.070636        -0.348531
 C         3.318017         0.262335        -0.292970
 C         2.232962         0.812221        -1.309323
 C         1.412649         0.209828        -0.145154
 C         2.320688        -1.041441        -0.140880
 O         2.407843        -1.605905         1.217036
 C         2.658423        -0.340834         2.005584
 C         2.442194         0.699350         0.921628
 O         2.484677         1.944039         1.562592
 H         5.105037        -0.921134        -0.017673
 H         5.115407         0.125534        -1.374079
 H         5.399463         0.875390         0.114687
 H         2.316435         1.936232        -1.295294
 H         2.205294         0.304193        -2.268948
 H         0.275396         0.359496        -0.144374
 H         2.357522        -1.889355        -0.891173
 H         1.787885        -0.363288         2.688160
 H         3.676525        -0.277833         2.450343
 H         2.157660         2.722330         0.962851
