19
Iteration:  2493charge 0 multiplicity 1
 C         4.809960         0.118112        -0.471360
 C         3.332839         0.177692        -0.270856
 C         2.258798         0.919157        -1.236961
 C         1.440553         0.298997        -0.142244
 C         2.329333        -1.014497        -0.180789
 O         2.382231        -1.601017         1.082813
 C         2.576004        -0.434740         1.986314
 C         2.447078         0.682931         0.953263
 O         2.480370         1.881182         1.729479
 H         5.154311         0.744412        -1.259305
 H         5.222677         0.440599         0.512370
 H         5.078438        -0.908179        -0.700174
 H         2.469118         2.028099        -1.370862
 H         2.281630         0.398352        -2.210483
 H         0.426258         0.241594        -0.000806
 H         2.434806        -1.853513        -1.013877
 H         1.837113        -0.470504         2.818596
 H         3.558142        -0.350744         2.484191
 H         2.497334         2.621257         1.077757
