19
Iteration:  2054
 C         4.828604         0.181808        -0.355333
 C         3.240084         0.204971        -0.317209
 C         2.225448         0.762421        -1.320846
 C         1.312487         0.251588        -0.129966
 C         2.347746        -0.978116        -0.144111
 O         2.431922        -1.604964         1.127930
 C         2.494235        -0.458151         2.048673
 C         2.498417         0.702909         1.018930
 O         2.640366         1.949897         1.599620
 H         5.249886         0.053504         0.657375
 H         5.138966        -0.602356        -1.043776
 H         5.246852         1.088520        -0.915587
 H         2.252310         1.853640        -1.551642
 H         2.172273         0.367714        -2.417044
 H         0.252865         0.354062        -0.264674
 H         2.327445        -1.717863        -0.915949
 H         1.693314        -0.545909         2.777755
 H         3.486654        -0.540534         2.570255
 H         2.760582         2.508427         0.846236
