19
Iteration:  2716
 C         4.811940         0.130765        -0.377841
 C         3.253287         0.258685        -0.305647
 C         2.143754         0.985696        -1.232823
 C         1.356654         0.287127        -0.126426
 C         2.330585        -0.995441        -0.227263
 O         2.545271        -1.654954         1.042825
 C         2.511536        -0.500950         1.911301
 C         2.425937         0.663022         0.965931
 O         2.609729         1.923073         1.685867
 H         5.014796        -0.926637        -0.057563
 H         5.265787         0.372489        -1.340075
 H         5.195389         0.736293         0.451803
 H         2.316564         2.068791        -1.139569
 H         2.049453         0.540159        -2.203797
 H         0.241819         0.373009         0.094617
 H         1.985936        -1.756268        -1.019921
 H         1.625780        -0.497385         2.580769
 H         3.494359        -0.424065         2.418579
 H         3.428794         1.627998         2.238660
