19
Iteration:  4411charge 0 multiplicity 1
 C         4.777245         0.222082        -0.346275
 C         3.275063         0.316432        -0.256019
 C         2.285960         1.204241        -1.102527
 C         1.370664         0.421822        -0.082256
 C         2.348488        -0.871456        -0.327900
 O         2.410164        -1.725781         0.817708
 C         2.511207        -0.755790         1.797943
 C         2.442530         0.555039         1.052675
 O         2.656027         1.723624         1.883916
 H         5.283127        -0.188372        -1.324598
 H         5.370802         1.162703        -0.191627
 H         5.102340        -0.534722         0.397471
 H         2.384053         2.300769        -0.909459
 H         2.204933         0.904331        -2.194609
 H         0.259300         0.368410        -0.105975
 H         2.210925        -1.388879        -1.328031
 H         1.625542        -0.712570         2.482712
 H         3.386093        -1.077183         2.363082
 H         2.086557         2.430594         1.734068
