19
Iteration:  2072charge 0 multiplicity 1
 C         4.790848         0.185488        -0.366973
 C         3.270695         0.235060        -0.241773
 C         2.218718         0.831300        -1.217323
 C         1.385394         0.178575        -0.198233
 C         2.269980        -1.030045        -0.137971
 O         2.518075        -1.600059         1.164542
 C         2.453086        -0.438041         1.948278
 C         2.326731         0.667356         0.894589
 O         2.771051         1.947383         1.594652
 H         5.140009         0.023828         0.655472
 H         5.204529        -0.591775        -0.989676
 H         5.146163         1.152667        -0.613927
 H         2.287255         1.939964        -1.583166
 H         2.084576         0.301773        -2.100886
 H         0.273146         0.091469         0.100005
 H         2.075492        -1.706495        -0.961841
 H         1.564697        -0.408765         2.629099
 H         3.358909        -0.277980         2.488905
 H         2.763838         2.706262         1.041184
