19
Iteration:  1541
 C         4.800531         0.195851        -0.407031
 C         3.298515         0.241492        -0.187556
 C         2.307473         0.807544        -1.240724
 C         1.422125         0.223119        -0.103586
 C         2.317893        -0.999143        -0.135764
 O         2.356271        -1.655770         1.166802
 C         2.544166        -0.421263         2.009749
 C         2.471817         0.657777         0.963269
 O         2.548256         1.934926         1.460635
 H         5.272540        -0.434695         0.436635
 H         5.102098        -0.195907        -1.434934
 H         5.149451         1.291138        -0.387875
 H         2.097824         1.907236        -1.323409
 H         2.307380         0.329320        -2.110399
 H         0.370955         0.284744        -0.028726
 H         2.357014        -1.802120        -0.915121
 H         1.706144        -0.351580         2.708818
 H         3.484573        -0.091777         2.461900
 H         2.828206         2.474798         0.754825
