19
Iteration:   595charge 0 multiplicity 1
 C         4.789362         0.149546        -0.368318
 C         3.324468         0.191133        -0.322373
 C         2.265989         0.878752        -1.295896
 C         1.352285         0.161884        -0.077266
 C         2.285454        -1.008671        -0.076580
 O         2.520205        -1.658610         1.171018
 C         2.427458        -0.487212         2.069992
 C         2.489619         0.760535         0.928787
 O         2.616600         2.032402         1.473187
 H         5.165300        -0.621504         0.360757
 H         5.265878        -0.105196        -1.374190
 H         5.188316         1.055224        -0.054649
 H         2.480568         1.869185        -1.280185
 H         2.170532         0.730605        -2.410070
 H         0.204017        -0.084710        -0.040124
 H         2.198184        -1.793205        -0.955856
 H         1.492376        -0.678855         2.636265
 H         3.302762        -0.366787         2.739115
 H         2.236717         2.612118         0.751257
