19
Iteration:  3512
 C         4.827766         0.217078        -0.402837
 C         3.315624         0.345959        -0.291502
 C         2.271379         1.098997        -1.141136
 C         1.409033         0.459608        -0.100655
 C         2.389365        -0.847103        -0.326226
 O         2.314512        -1.745360         0.875979
 C         2.522053        -0.754039         1.820456
 C         2.412400         0.606532         1.080896
 O         2.556693         1.788790         1.863864
 H         5.166298         0.355788        -1.434261
 H         5.329962         0.818591         0.441302
 H         5.277554        -0.773683        -0.184679
 H         2.425053         2.172492        -1.082960
 H         2.113138         0.781744        -2.232798
 H         0.344482         0.256072        -0.201019
 H         2.077533        -1.405774        -1.289952
 H         1.793836        -0.901244         2.721509
 H         3.603225        -0.854675         2.226620
 H         3.251575         1.679102         2.504239
