19
Iteration:  3899
 C         4.872314         0.220327        -0.406256
 C         3.402663         0.373560        -0.248397
 C         2.258706         1.263423        -0.971886
 C         1.395578         0.359237        -0.062730
 C         2.305853        -0.957885        -0.334521
 O         2.309795        -1.730320         0.801049
 C         2.463374        -0.757000         1.883152
 C         2.569490         0.550912         1.065968
 O         2.543666         1.758854         1.743498
 H         5.448452         0.560676        -1.339756
 H         5.266083         0.824575         0.390387
 H         4.983268        -0.865942        -0.165992
 H         2.283217         2.367981        -0.822024
 H         1.880554         1.143055        -2.098454
 H         0.442497         0.110559         0.350482
 H         2.294379        -1.578531        -1.281739
 H         1.649100        -0.589389         2.636839
 H         3.294806        -1.228363         2.467930
 H         2.687776         2.507506         1.018348
