19
Iteration:  1567charge 0 multiplicity 1
 C         4.883148         0.156828        -0.434247
 C         3.281790         0.085046        -0.323880
 C         2.265627         0.918263        -1.141254
 C         1.379824         0.230598        -0.107389
 C         2.292317        -1.046457        -0.134823
 O         2.511824        -1.626321         1.119267
 C         2.421653        -0.445679         2.087140
 C         2.513680         0.665590         1.008841
 O         2.552582         2.010204         1.440874
 H         5.124107        -0.139616         0.590635
 H         5.506334        -0.448230        -1.155731
 H         5.093689         1.197709        -0.517477
 H         2.312646         1.991739        -1.077799
 H         1.978641         0.645446        -2.310386
 H         0.286652         0.190722        -0.224178
 H         2.216126        -1.899718        -0.756807
 H         1.379440        -0.277778         2.536783
 H         3.224085        -0.318336         2.832863
 H         2.499972         2.489265         0.644327
