19
Iteration:  4177charge 0 multiplicity 1
 C         4.788456         0.096470        -0.453889
 C         3.298722         0.355025        -0.166399
 C         2.347137         1.128833        -1.113224
 C         1.373112         0.369206        -0.169129
 C         2.395094        -0.825981        -0.392963
 O         2.443013        -1.705107         0.766039
 C         2.428305        -0.655265         1.909209
 C         2.338205         0.625052         1.154394
 O         2.588458         1.671341         1.955285
 H         5.042549         0.476204        -1.453988
 H         5.201115         1.091124        -0.037115
 H         5.155322        -0.951333        -0.239969
 H         2.330186         2.244093        -1.014358
 H         2.507182         0.735641        -2.125901
 H         0.285563         0.485638        -0.115141
 H         2.288349        -1.323130        -1.322735
 H         1.714154        -0.798545         2.746237
 H         3.474268        -0.680838         2.321805
 H         2.968094         2.476407         1.465903
