19
Iteration:  1199
 C         4.837107         0.169384        -0.363580
 C         3.254820         0.187458        -0.291778
 C         2.155705         0.868046        -1.283066
 C         1.390547         0.191139        -0.124078
 C         2.351035        -1.069421        -0.095445
 O         2.494603        -1.599856         1.197841
 C         2.442972        -0.440087         2.009517
 C         2.467734         0.701921         0.903751
 O         2.677601         1.943797         1.510788
 H         5.253873        -0.381233         0.437331
 H         5.174354        -0.269702        -1.281034
 H         5.131691         1.261472        -0.289367
 H         2.157453         2.011216        -1.237126
 H         2.218039         0.371285        -2.226727
 H         0.331000         0.190645        -0.031490
 H         2.187460        -1.732936        -0.885727
 H         1.405835        -0.512894         2.493649
 H         3.262620        -0.124862         2.722778
 H         2.434121         2.724911         0.875040
