19
Iteration:  3090charge 0 multiplicity 1
 C         4.811802         0.277266        -0.488742
 C         3.360416         0.251870        -0.341331
 C         2.199659         1.112697        -1.039453
 C         1.414765         0.289399        -0.052634
 C         2.334210        -0.994409        -0.327586
 O         2.419572        -1.648699         0.932792
 C         2.414998        -0.640262         1.954571
 C         2.459789         0.555037         1.101903
 O         2.669814         1.779252         1.721870
 H         5.243713        -0.471863         0.132353
 H         5.108130         0.298481        -1.521955
 H         5.159624         1.282307        -0.131951
 H         2.326889         2.160326        -0.849194
 H         2.157347         0.893744        -2.102506
 H         0.242147         0.295268        -0.081739
 H         1.924649        -1.538230        -1.139312
 H         1.573822        -0.827225         2.599474
 H         3.247923        -0.761658         2.645290
 H         2.746163         2.696455         1.270947
