19
Iteration:  3641charge 0 multiplicity 1
 C         4.770719         0.250282        -0.330142
 C         3.330473         0.249288        -0.202337
 C         2.342571         1.118532        -1.085183
 C         1.380622         0.371234        -0.036448
 C         2.232085        -0.877420        -0.387586
 O         2.328571        -1.681235         0.779514
 C         2.542477        -0.745369         1.876784
 C         2.492683         0.545503         1.032722
 O         2.637187         1.783331         1.834351
 H         5.233071         0.394766        -1.289006
 H         5.336268         1.058211         0.165965
 H         5.168223        -0.666710        -0.034586
 H         2.418858         2.239154        -1.110196
 H         2.318823         0.774636        -2.104223
 H         0.331569         0.499954         0.191970
 H         2.096970        -1.374580        -1.436420
 H         1.868331        -0.805654         2.724412
 H         3.572846        -0.956799         2.224495
 H         2.204041         2.595974         1.408715
