19
Iteration:  4731
 C         4.777718         0.181033        -0.348771
 C         3.316465         0.303948        -0.298250
 C         2.241150         1.153943        -1.140091
 C         1.422578         0.434601        -0.031615
 C         2.305809        -0.877585        -0.357329
 O         2.403376        -1.683046         0.815909
 C         2.666400        -0.698368         1.774415
 C         2.502143         0.540221         1.050388
 O         2.490704         1.719905         1.940853
 H         5.203352         0.519050        -1.332704
 H         5.332911         0.623849         0.498601
 H         5.033341        -0.912288        -0.292153
 H         2.172192         2.234215        -1.190389
 H         1.999330         0.830694        -2.180613
 H         0.426271         0.455034         0.379515
 H         2.122983        -1.515726        -1.204140
 H         1.861691        -0.668387         2.591037
 H         3.672406        -0.776639         2.226374
 H         2.186475         2.506292         1.587730
