19
Iteration:  4232
 C         4.894966         0.279126        -0.371772
 C         3.323921         0.229237        -0.287730
 C         2.365505         1.159517        -0.947617
 C         1.401287         0.395411         0.011327
 C         2.258054        -0.883225        -0.346157
 O         2.342185        -1.674814         0.786371
 C         2.518560        -0.796259         1.833001
 C         2.465478         0.545121         1.136433
 O         2.510887         1.792655         1.695303
 H         5.141188         0.812723        -1.290350
 H         5.444635         0.670657         0.584893
 H         5.295277        -0.785995        -0.546165
 H         2.647891         2.246717        -0.832696
 H         2.057407         0.990111        -1.977494
 H         0.299195         0.420519         0.078363
 H         1.922360        -1.528852        -1.107004
 H         1.662927        -0.805952         2.539050
 H         3.424925        -1.165399         2.361320
 H         2.819610         2.453373         1.126791
