19
Iteration:  3822
 C         4.918798         0.206530        -0.368923
 C         3.405867         0.377426        -0.336792
 C         2.213282         1.177408        -1.133636
 C         1.373164         0.369777        -0.019386
 C         2.310747        -0.858345        -0.386734
 O         2.355564        -1.713454         0.790094
 C         2.424780        -0.760113         1.850167
 C         2.464867         0.597797         1.125845
 O         2.648464         1.707374         1.920907
 H         5.169555        -0.770666        -0.904802
 H         5.447307         1.091064        -0.711487
 H         5.125586        -0.137983         0.686613
 H         2.342441         2.230623        -1.359556
 H         2.052297         0.844176        -2.218974
 H         0.276313         0.456371         0.136725
 H         2.284918        -1.453585        -1.332464
 H         1.484420        -0.704010         2.485474
 H         3.363048        -0.917691         2.463569
 H         2.158780         2.473253         1.589869
