19
Iteration:  2568
 C         4.851996         0.189633        -0.359382
 C         3.259765         0.217898        -0.315008
 C         2.271762         1.061310        -1.113789
 C         1.363494         0.182860        -0.099161
 C         2.250769        -1.042215        -0.204451
 O         2.500303        -1.653189         1.054267
 C         2.437648        -0.514126         2.004672
 C         2.420534         0.627425         1.008896
 O         2.690238         1.903579         1.515445
 H         5.196618         0.362594        -1.336256
 H         5.171104         0.904166         0.368330
 H         5.160935        -0.706710         0.108781
 H         2.205480         2.090412        -1.008163
 H         2.042415         0.995440        -2.207281
 H         0.356924         0.399762        -0.004547
 H         2.219949        -1.787793        -1.028968
 H         1.633225        -0.467539         2.754322
 H         3.357304        -0.526828         2.490086
 H         2.445120         2.396841         0.662609
