19
Iteration:   815charge 0 multiplicity 1
 C         4.805493         0.198800        -0.380334
 C         3.318061         0.173159        -0.288953
 C         2.215982         0.897975        -1.267304
 C         1.363695         0.176633        -0.055572
 C         2.349479        -1.053401        -0.133220
 O         2.481457        -1.674127         1.184096
 C         2.419281        -0.370653         2.024061
 C         2.458589         0.666903         0.936990
 O         2.637242         1.962387         1.481846
 H         5.262687        -0.681564         0.049028
 H         5.051630         0.185343        -1.490915
 H         5.337518         1.067506         0.056355
 H         2.050759         1.978177        -1.192613
 H         2.272675         0.361406        -2.272386
 H         0.193661         0.110569         0.073061
 H         2.250225        -1.628045        -0.973157
 H         1.526789        -0.096599         2.624654
 H         3.253344        -0.494856         2.686713
 H         2.841063         2.654888         0.736779
