19
Iteration:  4113
 C         4.814897         0.321713        -0.295245
 C         3.332778         0.316351        -0.222453
 C         2.369801         1.280926        -0.973990
 C         1.323413         0.294329        -0.079867
 C         2.326705        -0.858809        -0.342169
 O         2.236203        -1.783388         0.772327
 C         2.535215        -0.791087         1.870765
 C         2.466328         0.501779         1.032820
 O         2.706973         1.763477         1.714534
 H         5.231212        -0.403362        -0.959978
 H         5.231571         1.294122        -0.668882
 H         5.205729         0.021929         0.738659
 H         2.193013         2.376267        -0.593758
 H         2.347345         1.207349        -2.083388
 H         0.216930         0.543805        -0.025666
 H         2.265365        -1.394998        -1.240521
 H         1.775685        -0.880535         2.699422
 H         3.481945        -1.316009         2.187444
 H         2.035045         2.422079         1.249393
