19
Iteration:  3649
 C         4.814073         0.237988        -0.335821
 C         3.282446         0.324027        -0.257444
 C         2.353133         1.130619        -1.016944
 C         1.431798         0.352738        -0.038620
 C         2.293217        -0.865921        -0.338832
 O         2.282360        -1.703159         0.789102
 C         2.544535        -0.848969         1.796351
 C         2.485129         0.587032         1.126466
 O         2.628071         1.840179         1.782424
 H         4.898506         0.194508        -1.496470
 H         5.364190         1.100803         0.089929
 H         5.187341        -0.713463         0.172336
 H         2.328322         2.312533        -1.130817
 H         2.279961         0.762097        -2.069851
 H         0.367828         0.254917         0.242031
 H         2.115422        -1.399839        -1.350008
 H         1.746559        -0.974957         2.550073
 H         3.465776        -0.991285         2.388008
 H         2.330321         2.594179         1.215473
