19
Iteration:   712charge 0 multiplicity 1
 C         4.773041         0.060835        -0.312577
 C         3.286372         0.246512        -0.230665
 C         2.235290         0.843012        -1.254077
 C         1.318302         0.200004        -0.098915
 C         2.297939        -1.041474        -0.116082
 O         2.571329        -1.590240         1.135857
 C         2.530119        -0.463253         1.924274
 C         2.493863         0.676958         0.925444
 O         2.582518         2.015577         1.507978
 H         5.299064        -0.454139         0.566970
 H         5.015667        -0.409244        -1.291154
 H         5.188241         1.099248        -0.373740
 H         2.268841         2.033193        -1.264883
 H         2.220578         0.651540        -2.261227
 H         0.283442         0.240882         0.087272
 H         2.137831        -1.884417        -0.912270
 H         1.478507        -0.534836         2.269383
 H         3.212176        -0.255508         2.785200
 H         2.326317         2.782096         1.022188
