19
Iteration:  1313charge 0 multiplicity 1
 C         4.779989         0.103518        -0.313402
 C         3.293769         0.154883        -0.302068
 C         2.272968         0.826815        -1.275960
 C         1.380519         0.232521        -0.046509
 C         2.326850        -1.004088        -0.158301
 O         2.546700        -1.576332         1.148541
 C         2.478569        -0.430283         2.017486
 C         2.443611         0.664347         0.978614
 O         2.601884         2.025094         1.473652
 H         5.222915        -0.639863         0.361029
 H         5.146768        -0.116138        -1.319961
 H         5.106685         1.065482        -0.076502
 H         2.301397         1.846998        -1.371464
 H         2.021989         0.273247        -2.276933
 H         0.202659         0.360027        -0.218341
 H         2.083386        -1.801413        -0.988612
 H         1.559590        -0.605675         2.642008
 H         3.416087        -0.292205         2.605706
 H         1.960021         2.507210         0.870110
