19
Iteration:   796
 C         4.834015         0.221058        -0.463530
 C         3.340596         0.205669        -0.259511
 C         2.269744         0.877118        -1.144854
 C         1.409216         0.150076        -0.140954
 C         2.255928        -1.043128        -0.094383
 O         2.388472        -1.552561         1.182315
 C         2.516142        -0.542489         2.047100
 C         2.495078         0.671420         0.985957
 O         2.533284         1.971435         1.418001
 H         5.235448        -0.733908        -0.139626
 H         5.180869         0.340021        -1.451036
 H         5.366670         1.060507         0.087476
 H         2.416785         1.912450        -1.182776
 H         2.216299         0.366036        -2.242033
 H         0.294933         0.443283        -0.086368
 H         2.258295        -1.936260        -0.738736
 H         1.711494        -0.490686         2.805720
 H         3.428319        -0.246912         2.585321
 H         2.791694         2.452761         0.579273
