19
Iteration:  3301charge 0 multiplicity 1
 C         4.785916         0.243091        -0.395210
 C         3.267814         0.320954        -0.316422
 C         2.182037         1.152881        -1.127317
 C         1.331799         0.320780        -0.080519
 C         2.258058        -0.890926        -0.345461
 O         2.468146        -1.701997         0.879939
 C         2.526132        -0.655803         1.834864
 C         2.496107         0.575815         1.056969
 O         2.663704         1.681401         1.920732
 H         5.185413         0.667579        -1.350144
 H         5.264035         0.770133         0.489473
 H         5.213158        -0.755810        -0.337515
 H         2.205263         2.274076        -1.012752
 H         2.078405         0.967384        -2.167195
 H         0.209131         0.435714        -0.122860
 H         2.113262        -1.361210        -1.310154
 H         1.799973        -0.759047         2.655482
 H         3.548337        -0.747276         2.316263
 H         3.200282         2.371039         1.485943
