19
Iteration:  3717charge 0 multiplicity 1
 C         4.805667         0.175621        -0.390716
 C         3.338592         0.314546        -0.213654
 C         2.279137         1.156820        -1.166047
 C         1.373905         0.485793        -0.094987
 C         2.303958        -0.860516        -0.410973
 O         2.421825        -1.703632         0.824185
 C         2.490193        -0.760770         1.837516
 C         2.417004         0.560620         1.071658
 O         2.585876         1.716841         2.010573
 H         5.077990        -0.664432        -1.085560
 H         5.196502         1.063898        -0.997649
 H         5.467236         0.172316         0.452084
 H         2.357280         2.315196        -1.353869
 H         2.209714         0.709469        -2.155873
 H         0.322888         0.596502        -0.029713
 H         2.296510        -1.629144        -1.306159
 H         1.615412        -0.906160         2.469960
 H         3.327659        -0.771230         2.532608
 H         3.003103         2.376145         1.509409
