19
Iteration:  2069charge 0 multiplicity 1
 C         4.796584         0.196063        -0.368382
 C         3.297406         0.230016        -0.254813
 C         2.217004         0.836625        -1.241488
 C         1.352364         0.205991        -0.206951
 C         2.271316        -1.040372        -0.134259
 O         2.504563        -1.594231         1.150021
 C         2.478077        -0.452506         1.967056
 C         2.312649         0.677617         0.936450
 O         2.762084         1.952075         1.603100
 H         5.213879         0.015890         0.656331
 H         5.219435        -0.732916        -0.999910
 H         5.208370         1.187707        -0.627376
 H         2.199512         1.880451        -1.531751
 H         2.128523         0.143383        -2.180136
 H         0.304030         0.088117         0.066850
 H         2.102100        -1.843417        -1.013113
 H         1.567335        -0.418742         2.608091
 H         3.401692        -0.305931         2.600475
 H         2.792026         2.766506         0.979293
