19
Iteration:  2724
 C         4.804466         0.155071        -0.365767
 C         3.271239         0.226032        -0.329239
 C         2.186660         0.943625        -1.205444
 C         1.328024         0.345104        -0.090075
 C         2.340465        -0.925695        -0.136723
 O         2.501318        -1.683199         1.024540
 C         2.506788        -0.518419         1.863880
 C         2.377301         0.667261         0.962634
 O         2.623293         1.895462         1.678703
 H         5.199638        -0.781808        -0.010279
 H         5.240751         0.259845        -1.363402
 H         5.371985         0.829046         0.272038
 H         2.225622         2.100209        -1.321878
 H         1.918540         0.554871        -2.173551
 H         0.237002         0.078394        -0.137420
 H         2.353279        -1.703431        -1.139452
 H         1.836852        -0.507789         2.733364
 H         3.456013        -0.390702         2.301631
 H         3.484785         1.798830         2.169739
