19
Iteration:  3329charge 0 multiplicity 1
 C         4.792237         0.237833        -0.417760
 C         3.276459         0.275575        -0.300961
 C         2.246736         1.209914        -0.978712
 C         1.403956         0.364405         0.112060
 C         2.249966        -0.841211        -0.343476
 O         2.500728        -1.752537         0.789214
 C         2.486987        -0.757700         1.867305
 C         2.558131         0.510336         1.105396
 O         2.590254         1.795767         1.708506
 H         5.129950         0.087386        -1.458425
 H         5.067902         1.112763         0.132240
 H         5.238275        -0.646410         0.169831
 H         2.358358         2.295002        -0.853418
 H         2.083862         1.061125        -2.101174
 H         0.320961         0.617541         0.231118
 H         2.027971        -1.277850        -1.339613
 H         1.544077        -0.925334         2.414663
 H         3.422706        -1.028795         2.370830
 H         2.286623         2.360010         0.920962
