19
Iteration:  4951charge 0 multiplicity 1
 C         4.850305         0.416694        -0.466035
 C         3.366766         0.330910        -0.276002
 C         2.198830         1.059759        -1.144298
 C         1.381418         0.312031        -0.097031
 C         2.200777        -0.902440        -0.317310
 O         2.402274        -1.669796         0.807496
 C         2.466934        -0.701539         1.889008
 C         2.513401         0.586435         1.051716
 O         2.637800         1.636162         1.988297
 H         5.239929        -0.214676        -1.215878
 H         5.263655         1.394411        -0.822253
 H         5.259279        -0.146789         0.408263
 H         2.199043         2.201975        -0.944262
 H         2.332933         0.673398        -2.179273
 H         0.274570         0.502718         0.075711
 H         2.129521        -1.451626        -1.296382
 H         1.519191        -0.799669         2.543534
 H         3.357015        -0.961091         2.484946
 H         3.143078         2.453126         1.512956
