19
Iteration:  1762charge 0 multiplicity 1
 C         4.823464         0.184616        -0.434089
 C         3.328364         0.218166        -0.229817
 C         2.335977         0.899569        -1.233485
 C         1.397680         0.133026        -0.138492
 C         2.288743        -0.975726        -0.145857
 O         2.319472        -1.572461         1.157729
 C         2.649348        -0.496304         2.023758
 C         2.425869         0.623958         1.056213
 O         2.512081         2.010014         1.484400
 H         5.127919        -0.380000         0.450527
 H         4.981798        -0.507169        -1.314243
 H         5.365595         1.086379        -0.513472
 H         2.512802         2.112648        -1.420838
 H         2.212080         0.404663        -2.126416
 H         0.354473         0.051458        -0.258381
 H         2.216094        -1.922486        -0.797564
 H         2.040514        -0.466242         2.916777
 H         3.680226        -0.547395         2.296326
 H         2.307226         2.471957         0.697265
