19
Iteration:  1754charge 0 multiplicity 1
 C         4.785858         0.182101        -0.407509
 C         3.277079         0.208511        -0.285468
 C         2.292863         0.823251        -1.205011
 C         1.412584         0.226333        -0.190475
 C         2.343337        -1.003831        -0.148758
 O         2.306777        -1.572875         1.176048
 C         2.628054        -0.506683         2.027318
 C         2.452638         0.699467         1.053276
 O         2.537555         1.982931         1.497480
 H         5.235458        -0.467979         0.384365
 H         5.130826        -0.389965        -1.386300
 H         5.359237         1.196770        -0.376343
 H         2.437088         1.918579        -1.377019
 H         2.240224         0.306203        -2.176539
 H         0.255514         0.027551        -0.193351
 H         2.600844        -1.781961        -0.964934
 H         2.030513        -0.557452         3.005995
 H         3.698839        -0.599265         2.335602
 H         2.286923         2.589170         0.833784
