19
Iteration:  3785
 C         4.818021         0.272309        -0.331865
 C         3.223384         0.268159        -0.219765
 C         2.453457         1.250295        -0.940028
 C         1.325013         0.370101        -0.031466
 C         2.244854        -0.885783        -0.503487
 O         2.360575        -1.745313         0.818835
 C         2.538958        -0.729735         1.852333
 C         2.398410         0.505594         1.079141
 O         2.684267         1.733975         1.716204
 H         5.284592        -0.544157        -0.821808
 H         5.311313         1.164459        -0.868863
 H         5.242415         0.350025         0.713319
 H         2.612619         2.318035        -0.626559
 H         2.404603         1.006294        -2.066801
 H         0.236498         0.526732         0.226104
 H         2.044653        -1.532014        -1.333082
 H         1.757944        -0.828959         2.623034
 H         3.453834        -0.982942         2.373550
 H         2.012051         2.427027         1.331955
