19
Iteration:  3905
 C         4.865650         0.228016        -0.373581
 C         3.372914         0.348505        -0.299741
 C         2.229433         1.317416        -1.063548
 C         1.455214         0.321487        -0.040089
 C         2.287901        -0.903733        -0.335827
 O         2.328631        -1.766757         0.835522
 C         2.465928        -0.763825         1.889304
 C         2.538534         0.547827         1.044743
 O         2.586673         1.747735         1.746213
 H         5.297808         0.656486        -1.234006
 H         5.273030         0.714946         0.570085
 H         5.126415        -0.816906        -0.119447
 H         2.224732         2.335961        -0.653592
 H         2.095357         1.118940        -2.098547
 H         0.344398         0.279284         0.300448
 H         2.080166        -1.545959        -1.169628
 H         1.573935        -0.664108         2.525649
 H         3.311355        -1.072070         2.499533
 H         2.545742         2.486628         1.185319
