19
Iteration:  1059charge 0 multiplicity 1
 C         4.832112         0.146966        -0.372474
 C         3.277449         0.208425        -0.331169
 C         2.222601         0.783210        -1.253782
 C         1.411390         0.235871        -0.087143
 C         2.368101        -1.048276        -0.114030
 O         2.468424        -1.582158         1.179301
 C         2.474858        -0.362282         1.976559
 C         2.420008         0.675447         0.933445
 O         2.596077         1.943739         1.559873
 H         5.186916        -0.849128         0.076337
 H         5.236730         0.080989        -1.373928
 H         5.372767         1.064693         0.021278
 H         2.124161         1.823881        -1.355778
 H         2.123120         0.336844        -2.317737
 H         0.208688         0.276584        -0.028662
 H         2.290496        -1.770495        -0.928836
 H         1.575637        -0.555679         2.543232
 H         3.372896        -0.224368         2.528645
 H         2.504369         2.706126         0.974570
