19
Iteration:  1796charge 0 multiplicity 1
 C         4.797815         0.080334        -0.443783
 C         3.361662         0.105606        -0.329424
 C         2.273767         0.934528        -1.194862
 C         1.399859         0.275628        -0.075994
 C         2.361688        -1.040234        -0.136833
 O         2.487673        -1.572477         1.154457
 C         2.511061        -0.450245         2.010686
 C         2.518809         0.631137         0.968121
 O         2.415418         1.983248         1.531157
 H         5.089468        -0.079361         0.584714
 H         5.283761        -0.743007        -1.064156
 H         5.225240         1.040195        -0.721653
 H         2.562534         2.130119        -1.238651
 H         1.844472         0.661157        -2.097667
 H         0.288947         0.380067        -0.057084
 H         2.041499        -1.809315        -0.954008
 H         1.581119        -0.345343         2.612668
 H         3.375615        -0.396929         2.631914
 H         2.665845         2.493721         0.739068
