19
Iteration:  2754charge 0 multiplicity 1
 C         4.762071         0.289869        -0.439592
 C         3.320529         0.211635        -0.265947
 C         2.323280         1.033896        -1.130296
 C         1.445806         0.291211        -0.074908
 C         2.202803        -1.004171        -0.184714
 O         2.317113        -1.703885         1.023135
 C         2.581908        -0.646701         1.930859
 C         2.576368         0.576377         1.049790
 O         2.495796         1.960962         1.553520
 H         5.229830        -0.293677         0.375826
 H         5.213343        -0.207157        -1.339082
 H         5.157793         1.383349        -0.474498
 H         2.399487         2.156953        -1.198432
 H         2.173755         0.606776        -2.171260
 H         0.361833         0.218778         0.058465
 H         2.110192        -1.697987        -1.015735
 H         1.849054        -0.471417         2.753738
 H         3.641650        -0.886378         2.381901
 H         3.394827         2.395441         1.753740
