19
Iteration:  3223
 C         4.750903         0.276573        -0.490967
 C         3.338864         0.203400        -0.317068
 C         2.240056         1.251280        -0.972761
 C         1.451570         0.375729         0.001786
 C         2.239541        -0.923537        -0.313481
 O         2.448642        -1.743013         0.880712
 C         2.510052        -0.725976         1.939724
 C         2.543078         0.496321         1.022947
 O         2.624784         1.807153         1.677375
 H         5.040875         1.221968        -0.018924
 H         5.271301        -0.375989         0.243426
 H         5.259526         0.026110        -1.432300
 H         2.392326         2.305634        -0.610130
 H         2.057519         1.099290        -2.010431
 H         0.280509         0.378443         0.206070
 H         2.044882        -1.462272        -1.226006
 H         1.543914        -0.672733         2.506007
 H         3.280038        -1.036778         2.674854
 H         1.878347         2.380384         1.265686
