19
Iteration:  1572
 C         4.872336         0.114148        -0.430447
 C         3.313709         0.111660        -0.322925
 C         2.245547         0.889976        -1.122765
 C         1.400903         0.209025        -0.109752
 C         2.253637        -1.032358        -0.164444
 O         2.518369        -1.632481         1.133471
 C         2.425942        -0.400779         2.053135
 C         2.514004         0.662549         1.004597
 O         2.566144         2.014643         1.462443
 H         5.247992        -0.044758         0.603018
 H         5.466258        -0.465904        -1.101773
 H         5.023971         1.232249        -0.524917
 H         2.197580         2.025650        -1.026058
 H         2.103093         0.692527        -2.167515
 H         0.234102         0.212796        -0.217634
 H         2.256128        -1.911899        -0.916215
 H         1.425965        -0.526856         2.442464
 H         3.127827        -0.148723         2.887216
 H         2.362137         2.512192         0.575713
