19
Iteration:  3051charge 0 multiplicity 1
 C         4.773363         0.214022        -0.426258
 C         3.287524         0.306729        -0.292158
 C         2.266339         0.969022        -1.176975
 C         1.403476         0.439063        -0.078148
 C         2.318286        -0.915743        -0.257993
 O         2.452788        -1.705385         0.886943
 C         2.537058        -0.639550         1.926822
 C         2.410117         0.643163         1.031381
 O         2.664738         1.800242         1.830035
 H         5.149828        -0.848209        -0.584860
 H         5.108477         0.788581        -1.362002
 H         5.373911         0.568750         0.429944
 H         2.120729         2.126194        -1.381992
 H         2.115242         0.355940        -2.097443
 H         0.310349         0.511365        -0.025357
 H         2.041264        -1.625401        -1.114152
 H         1.684208        -0.748371         2.707277
 H         3.567195        -0.700168         2.390985
 H         1.806297         2.198084         1.823786
