19
Iteration:  1236charge 0 multiplicity 1
 C         4.797982         0.150407        -0.439378
 C         3.358262         0.183465        -0.220930
 C         2.261882         0.913851        -1.190788
 C         1.444614         0.258352        -0.129384
 C         2.282877        -1.017181        -0.088432
 O         2.460153        -1.648381         1.211713
 C         2.491105        -0.442411         2.023095
 C         2.492947         0.656047         0.969502
 O         2.490893         1.982592         1.398338
 H         5.227542        -0.818831        -0.065028
 H         5.066475         0.255972        -1.497853
 H         5.303365         0.994480        -0.069810
 H         2.240719         1.955014        -1.231028
 H         2.392980         0.328505        -2.230840
 H         0.255894         0.207108         0.102356
 H         2.231220        -1.959703        -0.784146
 H         1.585045        -0.471715         2.681805
 H         3.429203        -0.511918         2.627077
 H         2.596786         2.592261         0.603346
