19
Iteration:  2761charge 0 multiplicity 1
 C         4.821650         0.296084        -0.442844
 C         3.341685         0.194886        -0.321969
 C         2.338467         1.043220        -1.091716
 C         1.428677         0.312235        -0.038220
 C         2.207330        -1.017835        -0.201325
 O         2.287083        -1.750115         1.046967
 C         2.591545        -0.637040         1.948324
 C         2.590174         0.642387         1.024151
 O         2.470392         1.938970         1.526117
 H         5.314083        -0.123012         0.470628
 H         5.098730        -0.253815        -1.339306
 H         4.999620         1.351779        -0.609236
 H         2.374352         2.069860        -0.927185
 H         2.149066         0.763305        -2.134221
 H         0.354124         0.291995         0.072785
 H         2.125929        -1.665023        -1.008414
 H         1.793539        -0.645713         2.684924
 H         3.546189        -0.873079         2.396835
 H         3.383849         2.396274         1.679268
