19
Iteration:  2471
 C         4.877757         0.129244        -0.468009
 C         3.371399         0.246868        -0.315522
 C         2.247176         0.971490        -1.181660
 C         1.368637         0.233008        -0.098821
 C         2.250266        -0.950834        -0.134897
 O         2.477362        -1.645853         1.137480
 C         2.435260        -0.481813         1.993891
 C         2.498521         0.635357         0.977936
 O         2.531119         1.864076         1.554276
 H         5.214208         0.904866        -1.125502
 H         5.245541         0.401913         0.579206
 H         5.296587        -0.808136        -0.796738
 H         2.322305         2.098545        -0.935154
 H         2.103920         0.876693        -2.265950
 H         0.342256         0.226322        -0.039135
 H         2.285792        -1.813916        -0.938221
 H         1.509748        -0.424886         2.610693
 H         3.248000        -0.449118         2.745696
 H         2.810264         2.437279         0.800591
