19
Iteration:  4251charge 0 multiplicity 1
 C         4.789666         0.288656        -0.328014
 C         3.303019         0.284559        -0.180803
 C         2.340350         1.181214        -1.075812
 C         1.369868         0.361829        -0.181145
 C         2.244439        -0.872206        -0.337985
 O         2.301605        -1.778041         0.805969
 C         2.556690        -0.743289         1.905486
 C         2.432709         0.549112         1.069697
 O         2.688649         1.765886         1.806258
 H         5.090167         0.879494        -1.248191
 H         5.215820         0.832408         0.589660
 H         5.113070        -0.763094        -0.379427
 H         2.153037         2.257926        -0.936150
 H         2.387067         0.906698        -2.181267
 H         0.308287         0.415256         0.015648
 H         2.381888        -1.428811        -1.378570
 H         1.905942        -0.960468         2.736998
 H         3.599032        -0.706841         2.254468
 H         2.659901         2.497622         1.250897
