19
Iteration:  1133charge 0 multiplicity 1
 C         4.807908         0.150618        -0.464150
 C         3.360785         0.242501        -0.286658
 C         2.337895         0.952519        -1.227968
 C         1.409822         0.152427        -0.120840
 C         2.331562        -1.050427        -0.146761
 O         2.334507        -1.581144         1.224102
 C         2.634967        -0.438141         2.024231
 C         2.498923         0.653826         1.017424
 O         2.433995         1.928597         1.448208
 H         5.207141        -0.012647         0.504562
 H         5.065496        -0.729423        -1.029758
 H         5.391003         1.068098        -0.780098
 H         2.022954         2.021232        -1.137857
 H         2.199448         0.467738        -2.176547
 H         0.360960         0.365990        -0.017969
 H         1.916558        -1.808315        -0.808145
 H         1.905736        -0.332258         2.900557
 H         3.639647        -0.767017         2.453715
 H         2.512696         2.554774         0.769248
