19
Iteration:  1957charge 0 multiplicity 1
 C         4.873448         0.029173        -0.398123
 C         3.333177         0.173522        -0.439189
 C         2.146605         0.811218        -1.325475
 C         1.407202         0.283372        -0.073505
 C         2.382123        -0.986368        -0.149262
 O         2.554402        -1.558605         1.147012
 C         2.415032        -0.433759         2.053960
 C         2.400338         0.685674         1.029129
 O         2.560517         1.992248         1.607701
 H         5.264361        -0.860016         0.173360
 H         5.351604         0.139458        -1.431819
 H         5.220802         0.994294         0.134635
 H         2.381836         1.804948        -1.475895
 H         1.963240         0.266253        -2.348473
 H         0.361948         0.470920         0.015165
 H         2.071998        -1.846615        -0.816655
 H         1.536946        -0.433738         2.709076
 H         3.387091        -0.425849         2.646208
 H         2.234711         2.547837         0.928806
