19
Iteration:  2884
 C         4.869151         0.131501        -0.442416
 C         3.297586         0.255444        -0.205338
 C         2.289420         1.146437        -0.993800
 C         1.359178         0.246364        -0.054678
 C         2.287529        -0.946702        -0.259889
 O         2.348820        -1.649188         0.944969
 C         2.611426        -0.669450         1.976485
 C         2.446313         0.581769         1.094384
 O         2.476270         1.936427         1.478646
 H         5.186825         1.174627        -0.638055
 H         5.284226        -0.478615         0.378664
 H         5.048634        -0.329502        -1.479648
 H         2.335287         2.278979        -1.076133
 H         2.319656         0.963599        -2.090877
 H         0.235367         0.119009        -0.067522
 H         2.383077        -1.485331        -1.115226
 H         2.099771        -0.965772         2.875935
 H         3.641207        -0.661025         2.338243
 H         3.425920         2.190391         1.693126
