19
Iteration:  3446
 C         4.772866         0.261268        -0.372828
 C         3.299729         0.268993        -0.249745
 C         2.232547         1.302579        -0.881193
 C         1.355707         0.265031        -0.136476
 C         2.343715        -0.895850        -0.392308
 O         2.365642        -1.726827         0.815933
 C         2.489974        -0.738771         1.861399
 C         2.465070         0.554258         1.080460
 O         2.746657         1.732238         1.746945
 H         5.079146        -0.562526        -1.034685
 H         5.259165         1.268817        -0.706075
 H         5.297610        -0.011671         0.535208
 H         2.348791         2.288480        -0.401455
 H         2.227054         1.299268        -2.005127
 H         0.276866         0.237867        -0.243251
 H         2.177746        -1.600013        -1.311830
 H         1.541420        -0.633083         2.446670
 H         3.453962        -0.709953         2.417750
 H         2.134308         2.459834         1.358751
