19
Iteration:  3754charge 0 multiplicity 1
 C         4.866568         0.231951        -0.333050
 C         3.269227         0.322151        -0.270879
 C         2.308069         1.246281        -1.044419
 C         1.442967         0.365931        -0.082057
 C         2.289709        -0.923066        -0.411869
 O         2.275038        -1.710476         0.823343
 C         2.552014        -0.745777         1.804586
 C         2.522491         0.538528         1.055408
 O         2.609211         1.727391         1.885893
 H         5.315162        -0.667779        -0.737022
 H         5.155138         1.062428        -0.988092
 H         5.205983         0.181226         0.728102
 H         2.371950         2.298911        -0.876687
 H         2.025164         1.139423        -2.161834
 H         0.312632         0.449432         0.074186
 H         2.122058        -1.503344        -1.278002
 H         1.714409        -0.660633         2.572518
 H         3.515334        -1.064588         2.295341
 H         2.205386         2.399014         1.387244
