19
Iteration:  4587
 C         4.789764         0.253482        -0.278923
 C         3.328846         0.278709        -0.296494
 C         2.261409         1.234244        -1.044635
 C         1.357176         0.317480        -0.059069
 C         2.310863        -0.853776        -0.410836
 O         2.378101        -1.680010         0.823310
 C         2.516846        -0.681780         1.798310
 C         2.467942         0.506864         1.008999
 O         2.580359         1.717189         1.850611
 H         4.990234        -0.299311        -1.288656
 H         5.239596         1.228306        -0.215832
 H         5.346721        -0.292442         0.489125
 H         2.218570         2.227807        -0.751711
 H         2.127547         0.998333        -2.081985
 H         0.319417         0.150803         0.144572
 H         2.345438        -1.547088        -1.295587
 H         1.768045        -0.566785         2.592628
 H         3.489212        -0.828994         2.216973
 H         3.520512         2.012719         1.771180
