19
Iteration:  1125charge 0 multiplicity 1
 C         4.836286         0.109487        -0.440408
 C         3.361342         0.225519        -0.297961
 C         2.288843         0.921165        -1.210776
 C         1.454992         0.200209        -0.091894
 C         2.327955        -1.009982        -0.158351
 O         2.355740        -1.563614         1.193264
 C         2.611324        -0.450188         2.078586
 C         2.473180         0.640725         0.960641
 O         2.435487         1.935744         1.471662
 H         5.331584        -0.131935         0.489725
 H         5.010101        -0.646563        -1.177708
 H         5.045672         1.075885        -0.908907
 H         2.195323         1.937362        -1.103132
 H         2.216730         0.691923        -2.325190
 H         0.276338         0.147187         0.084299
 H         2.237285        -1.894008        -0.769569
 H         1.810093        -0.284383         2.769596
 H         3.545489        -0.559199         2.569626
 H         2.525263         2.414630         0.635203
