19
Iteration:  2087charge 0 multiplicity 1
 C         4.713908         0.207013        -0.310313
 C         3.265696         0.153551        -0.343340
 C         2.241252         0.852663        -1.265091
 C         1.300354         0.223923        -0.073520
 C         2.349370        -1.033675        -0.148493
 O         2.496317        -1.611670         1.153102
 C         2.439165        -0.376880         1.975814
 C         2.508141         0.699492         0.955297
 O         2.724591         1.874162         1.524960
 H         5.212611        -0.138443         0.592524
 H         5.060980        -0.462633        -1.082130
 H         5.081325         1.247721        -0.539431
 H         2.213587         1.888094        -1.071762
 H         2.232441         0.555188        -2.356822
 H         0.239446         0.242676        -0.118888
 H         2.373192        -1.812425        -0.896576
 H         1.525735        -0.348087         2.575407
 H         3.305770        -0.356761         2.678792
 H         2.515766         2.613555         0.863973
