19
Iteration:  3165charge 0 multiplicity 1
 C         4.806455         0.175331        -0.426989
 C         3.284101         0.286318        -0.317717
 C         2.234000         1.110577        -1.176835
 C         1.414145         0.387744        -0.046272
 C         2.201550        -0.920954        -0.267492
 O         2.460746        -1.644782         0.923149
 C         2.643949        -0.667963         1.854318
 C         2.511221         0.561199         0.944505
 O         2.525108         1.803365         1.831122
 H         5.215835         0.379567         0.582868
 H         4.880825        -0.902215        -0.546829
 H         5.411337         0.809777        -1.154284
 H         2.284207         2.143158        -1.102138
 H         1.990064         0.883564        -2.247704
 H         0.320922         0.390454         0.205314
 H         2.103438        -1.491509        -1.194403
 H         1.787421        -0.502520         2.519592
 H         3.659803        -0.652211         2.348545
 H         2.530944         1.563504         2.727431
