19
Iteration:  2739
 C         4.790264         0.218297        -0.385434
 C         3.292273         0.273059        -0.258990
 C         2.254068         0.908308        -1.212614
 C         1.365713         0.309234        -0.083083
 C         2.315642        -0.938290        -0.258864
 O         2.369171        -1.632491         1.003651
 C         2.611485        -0.584767         1.993802
 C         2.435365         0.642844         1.032757
 O         2.570841         1.886986         1.610425
 H         5.222007        -0.634026         0.209042
 H         4.964740         0.074241        -1.452797
 H         5.194852         1.196398        -0.085198
 H         2.251305         1.964259        -1.256023
 H         2.226584         0.390777        -2.175755
 H         0.285887         0.410096         0.057235
 H         2.207441        -1.599889        -1.096105
 H         1.833171        -0.733407         2.748102
 H         3.626711        -0.660540         2.416245
 H         3.464546         1.925354         1.852494
