19
Iteration:  4307charge 0 multiplicity 1
 C         4.801821         0.284061        -0.307478
 C         3.274912         0.331504        -0.269961
 C         2.287673         1.108208        -1.067324
 C         1.422623         0.499001        -0.009139
 C         2.281871        -0.881781        -0.320450
 O         2.415208        -1.755983         0.766299
 C         2.458950        -0.806362         1.790318
 C         2.522127         0.510155         1.085589
 O         2.645402         1.757921         1.822608
 H         5.079848        -0.046379        -1.296791
 H         5.163152         1.328558        -0.021298
 H         5.183393        -0.370579         0.520991
 H         2.346749         2.229129        -1.053281
 H         2.163380         0.807913        -2.132704
 H         0.347846         0.551781        -0.018087
 H         1.919485        -1.473718        -1.190950
 H         1.499444        -0.968577         2.256040
 H         3.279037        -0.796636         2.512964
 H         2.557341         2.505626         1.158293
