19
Iteration:   778
 C         4.829085         0.177833        -0.451633
 C         3.318486         0.135320        -0.247245
 C         2.354386         0.839260        -1.190899
 C         1.429066         0.291595        -0.080574
 C         2.350542        -1.028736        -0.152022
 O         2.296674        -1.695086         1.194123
 C         2.645370        -0.382785         2.057512
 C         2.425694         0.687211         0.959893
 O         2.459126         1.981113         1.445624
 H         5.424599        -0.757987        -0.216695
 H         5.032491         0.460767        -1.524875
 H         5.102851         1.093249         0.074111
 H         2.374932         2.019634        -1.272999
 H         2.156526         0.586705        -2.158436
 H         0.432465         0.094195         0.036054
 H         2.125989        -1.884874        -0.932815
 H         1.868745        -0.456479         2.837005
 H         3.701461        -0.534236         2.559231
 H         2.551555         2.510470         0.605321
