19
Iteration:  3088
 C         4.816126         0.278400        -0.487492
 C         3.344034         0.246852        -0.362985
 C         2.209297         1.111275        -1.046772
 C         1.419604         0.293214        -0.048694
 C         2.320830        -0.994011        -0.322343
 O         2.431510        -1.641209         0.929119
 C         2.407406        -0.641849         1.967804
 C         2.471261         0.556156         1.077618
 O         2.671599         1.775090         1.745772
 H         5.247248        -0.522813         0.103751
 H         5.143476         0.351611        -1.496459
 H         5.116648         1.260627        -0.082008
 H         2.281086         2.106451        -0.885371
 H         2.137568         0.866211        -2.094301
 H         0.347564         0.300037        -0.093816
 H         1.882210        -1.577556        -1.138445
 H         1.555381        -0.751819         2.579434
 H         3.232595        -0.710658         2.669415
 H         2.653188         2.671279         1.290725
