19
Iteration:  1758charge 0 multiplicity 1
 C         4.808124         0.189022        -0.430475
 C         3.293027         0.210444        -0.263899
 C         2.314403         0.876957        -1.211574
 C         1.416238         0.174503        -0.170624
 C         2.304681        -0.987274        -0.155760
 O         2.313075        -1.566994         1.168040
 C         2.631376        -0.506841         2.023312
 C         2.438900         0.660242         1.071323
 O         2.528026         1.995187         1.493066
 H         5.153979        -0.446124         0.400068
 H         5.032168        -0.412714        -1.248226
 H         5.385621         1.123852        -0.436144
 H         2.507878         1.880399        -1.393436
 H         2.203761         0.277138        -2.215488
 H         0.332434        -0.002699        -0.249597
 H         2.462638        -1.797069        -0.788357
 H         2.081244        -0.520869         2.960986
 H         3.725339        -0.596300         2.325270
 H         2.270856         2.592277         0.701791
