19
Iteration:  4066charge 0 multiplicity 1
 C         4.868784         0.208587        -0.350423
 C         3.373770         0.329629        -0.361982
 C         2.226441         1.212078        -1.127313
 C         1.457957         0.471149        -0.039387
 C         2.253302        -0.879429        -0.407453
 O         2.388299        -1.761384         0.814539
 C         2.472353        -0.655033         1.853551
 C         2.515384         0.590379         1.048516
 O         2.573582         1.609981         1.972829
 H         5.386416        -0.553242        -0.988360
 H         5.303560         1.162528        -0.763818
 H         5.209158         0.037415         0.670124
 H         2.416407         2.330902        -1.147713
 H         2.035752         0.783284        -2.110032
 H         0.414044         0.275296         0.073330
 H         1.985789        -1.499605        -1.313652
 H         1.483381        -0.704809         2.366280
 H         3.286878        -0.766490         2.655870
 H         2.179195         2.364501         1.551468
