19
Iteration:   964
 C         4.753581         0.138732        -0.413418
 C         3.338353         0.164473        -0.292403
 C         2.233825         0.851031        -1.295397
 C         1.343838         0.225496        -0.034697
 C         2.371016        -0.973066        -0.152468
 O         2.531084        -1.613782         1.209076
 C         2.440892        -0.377425         1.974636
 C         2.434430         0.708292         0.941036
 O         2.610033         1.884209         1.551654
 H         5.102510        -0.661141         0.272967
 H         5.203190        -0.198749        -1.335349
 H         5.225362         1.032013        -0.252572
 H         2.257379         1.917562        -1.628869
 H         2.178867         0.344019        -2.230422
 H         0.357239         0.264916        -0.004846
 H         2.391037        -1.751265        -0.906800
 H         1.435774        -0.195370         2.413312
 H         3.265134        -0.221030         2.749181
 H         2.442547         2.635581         1.007763
