19
Iteration:    32charge 0 multiplicity 1
 C         4.841198         0.096782        -0.490777
 C         3.328632         0.162771        -0.296126
 C         2.337098         0.823185        -1.204453
 C         1.412440         0.265204        -0.066737
 C         2.341318        -1.001217        -0.082540
 O         2.289423        -1.634721         1.247658
 C         2.622467        -0.400989         1.974304
 C         2.471148         0.695752         0.937547
 O         2.471452         1.971760         1.469792
 H         5.251404        -0.254633         0.364640
 H         5.309969        -0.432480        -1.322841
 H         5.229293         1.138031        -0.568338
 H         2.421337         1.952125        -1.144423
 H         2.355904         0.466643        -2.150861
 H         0.325110         0.362208         0.049649
 H         2.313237        -1.745179        -0.874084
 H         1.773878        -0.360537         2.680462
 H         3.595116        -0.554384         2.359115
 H         2.095884         2.681872         0.854564
