19
Iteration:  4492charge 0 multiplicity 1
 C         4.858527         0.293691        -0.351123
 C         3.323969         0.293396        -0.324187
 C         2.310277         1.079242        -1.131554
 C         1.403770         0.407541        -0.141014
 C         2.301459        -0.863743        -0.285595
 O         2.300341        -1.691589         0.828610
 C         2.527807        -0.689424         1.842665
 C         2.442721         0.581553         0.998891
 O         2.645113         1.672017         1.953135
 H         5.213333         0.765680        -1.253244
 H         5.286491         0.644999         0.554850
 H         5.249016        -0.738011        -0.413659
 H         2.239961         2.190397        -1.032456
 H         2.161776         0.715953        -2.202412
 H         0.339616         0.490954        -0.079699
 H         2.188567        -1.377093        -1.208157
 H         1.819016        -0.760317         2.701072
 H         3.580695        -0.698441         2.240472
 H         1.876463         2.189607         1.864474
