19
Iteration:   249
 C         4.707889         0.087326        -0.387162
 C         3.283646         0.122769        -0.253461
 C         2.333071         0.838147        -1.225030
 C         1.443920         0.196966        -0.119985
 C         2.318602        -1.012143        -0.173385
 O         2.393595        -1.631829         1.201067
 C         2.553536        -0.401489         1.995648
 C         2.542662         0.666512         0.990291
 O         2.468060         2.074775         1.415298
 H         5.097739        -0.179374         0.619456
 H         5.232229        -0.560285        -1.178077
 H         5.283889         1.159907        -0.491610
 H         2.246847         2.034326        -1.018281
 H         1.954842         0.459616        -2.164683
 H         0.414133         0.049036         0.134954
 H         2.370622        -1.580208        -1.036981
 H         1.772765        -0.278976         2.808346
 H         3.576257        -0.360331         2.523005
 H         3.159450         2.537606         0.992618
