19
Iteration:  3616charge 0 multiplicity 1
 C         4.802560         0.243430        -0.289926
 C         3.326016         0.217035        -0.421112
 C         2.295571         1.218857        -1.144107
 C         1.371195         0.460383        -0.135729
 C         2.246804        -0.935363        -0.288488
 O         2.390961        -1.682003         0.945243
 C         2.551235        -0.700516         1.822956
 C         2.411659         0.569795         0.959924
 O         2.660398         1.627480         1.914019
 H         5.453035         0.689093        -1.098175
 H         5.286046         0.840834         0.472579
 H         5.258395        -0.794591        -0.317974
 H         2.422609         2.396648        -0.999682
 H         2.094005         1.013570        -2.225869
 H         0.267782         0.494309        -0.081786
 H         1.911862        -1.486183        -1.208259
 H         1.734406        -0.703225         2.555311
 H         3.523347        -0.704214         2.354634
 H         2.270519         2.573483         1.736003
