19
Iteration:  2889
 C         4.860509         0.161287        -0.424849
 C         3.289559         0.266796        -0.229556
 C         2.301501         1.151035        -1.000740
 C         1.362956         0.259231        -0.031436
 C         2.306819        -0.903428        -0.278705
 O         2.332968        -1.636471         0.969224
 C         2.617813        -0.693369         1.993332
 C         2.461686         0.527113         1.096209
 O         2.475402         1.927943         1.466983
 H         5.092236         1.168109        -0.864881
 H         5.459528        -0.344587         0.386225
 H         4.899274        -0.373569        -1.369429
 H         2.355431         2.270726        -1.144649
 H         2.361908         0.837929        -2.054554
 H         0.274367         0.245165        -0.102438
 H         2.311112        -1.677774        -1.241239
 H         1.932381        -1.012594         2.855294
 H         3.685820        -0.827062         2.485978
 H         3.373786         2.175160         1.555032
