19
Iteration:  3767
 C         4.816836         0.253515        -0.311724
 C         3.366444         0.186795        -0.330157
 C         2.319203         1.314608        -0.956328
 C         1.415039         0.430742        -0.152873
 C         2.208537        -0.879174        -0.298778
 O         2.331568        -1.722952         0.816654
 C         2.540427        -0.749508         1.865558
 C         2.452761         0.535847         1.056290
 O         2.629540         1.655661         1.743130
 H         5.277164        -0.601325        -0.856885
 H         5.187173         1.161480        -0.770652
 H         5.317624         0.533263         0.656813
 H         2.524983         2.232063        -0.474923
 H         2.144037         1.383087        -2.060373
 H         0.289462         0.516308        -0.123710
 H         2.054425        -1.544798        -1.140406
 H         1.835754        -0.941035         2.734530
 H         3.615184        -0.839935         2.267445
 H         2.047897         2.394440         1.317962
