19
Iteration:  4578
 C         4.787189         0.228159        -0.323420
 C         3.295050         0.321497        -0.258706
 C         2.271129         1.255945        -0.968114
 C         1.421960         0.288002        -0.089561
 C         2.288854        -0.908763        -0.421421
 O         2.394370        -1.700106         0.777363
 C         2.529835        -0.709903         1.883852
 C         2.469564         0.520734         1.051089
 O         2.556613         1.765654         1.798307
 H         5.142587        -0.145480        -1.366809
 H         5.324247         1.167434        -0.281971
 H         5.111265        -0.558678         0.416763
 H         2.305906         2.291184        -0.803478
 H         2.064487         1.107570        -2.027344
 H         0.389599         0.421593         0.108990
 H         2.303535        -1.497232        -1.322050
 H         1.648139        -0.855205         2.501668
 H         3.433028        -0.831807         2.488966
 H         3.394948         2.243270         1.562264
