19
Iteration:  4041charge 0 multiplicity 1
 C         4.854825         0.134970        -0.451376
 C         3.362143         0.357615        -0.291575
 C         2.271700         1.194437        -1.051292
 C         1.373573         0.410007        -0.079937
 C         2.380657        -0.860817        -0.323630
 O         2.404245        -1.686439         0.749410
 C         2.456177        -0.715679         1.883174
 C         2.488813         0.605153         1.068521
 O         2.502295         1.674008         1.955173
 H         5.167544        -0.466969        -1.351101
 H         5.358092         1.056880        -0.657284
 H         5.270945        -0.380279         0.397780
 H         2.138486         2.218010        -0.897499
 H         2.216058         0.901290        -2.123646
 H         0.319626         0.368213         0.068377
 H         2.421091        -1.521473        -1.238307
 H         1.465893        -0.742489         2.395682
 H         3.227066        -0.934202         2.603392
 H         2.757150         2.532185         1.461276
