19
Iteration:   601charge 0 multiplicity 1
 C         4.824308         0.181999        -0.392283
 C         3.305064         0.209467        -0.309703
 C         2.281806         0.811209        -1.324140
 C         1.357887         0.180422        -0.085276
 C         2.255355        -1.043434        -0.081838
 O         2.478149        -1.601372         1.127336
 C         2.448370        -0.440407         2.063770
 C         2.507486         0.686755         0.955441
 O         2.610453         2.013771         1.514646
 H         5.147716        -0.475671         0.433158
 H         5.163500        -0.124267        -1.354618
 H         5.346142         1.177574        -0.070473
 H         2.408990         2.032022        -1.229171
 H         2.154440         0.510487        -2.365664
 H         0.330217        -0.048743        -0.028332
 H         2.298765        -1.906769        -0.708788
 H         1.512232        -0.470209         2.634180
 H         3.334702        -0.604726         2.699636
 H         2.229210         2.628808         0.783438
