19
Iteration:  3147charge 0 multiplicity 1
 C         4.848015         0.162548        -0.390945
 C         3.350275         0.223665        -0.431180
 C         2.224058         1.090267        -1.070994
 C         1.385543         0.408543         0.018707
 C         2.237644        -0.900986        -0.290290
 O         2.383837        -1.703777         0.899606
 C         2.658065        -0.601899         1.891435
 C         2.501726         0.565644         1.030776
 O         2.466431         1.810396         1.732848
 H         5.356624         0.427112         0.543310
 H         5.425189        -0.726917        -0.700021
 H         5.079652         1.118753        -0.887134
 H         2.334038         2.251292        -1.107961
 H         2.027354         0.971849        -2.142480
 H         0.186144         0.519108         0.119828
 H         1.972298        -1.538007        -1.129324
 H         1.822248        -0.815897         2.592084
 H         3.720369        -0.729017         2.051593
 H         3.103461         1.783096         2.420527
