19
Iteration:  4961charge 0 multiplicity 1
 C         4.923078         0.433852        -0.470329
 C         3.345684         0.379998        -0.314856
 C         2.231613         1.062597        -1.160826
 C         1.488030         0.344453        -0.009884
 C         2.216289        -0.936414        -0.320858
 O         2.316875        -1.785678         0.821076
 C         2.453072        -0.730001         1.859912
 C         2.534446         0.540777         1.041111
 O         2.609610         1.708655         1.962916
 H         5.180193        -0.194133        -1.279929
 H         5.173958         1.475034        -0.605933
 H         5.475285         0.221073         0.482887
 H         2.037852         2.179355        -0.979402
 H         1.878210         0.880366        -2.205302
 H         0.392344         0.446181         0.183045
 H         1.820616        -1.469300        -1.222256
 H         1.525055        -0.720648         2.515748
 H         3.333178        -0.882458         2.474672
 H         3.157148         2.483536         1.579143
