19
Iteration:  4376
 C         4.838652         0.183390        -0.510196
 C         3.369068         0.273652        -0.289949
 C         2.387313         1.123718        -1.089317
 C         1.405672         0.452957        -0.068257
 C         2.273668        -0.793510        -0.297287
 O         2.383026        -1.660169         0.804972
 C         2.580149        -0.747959         1.785620
 C         2.503514         0.613861         1.103775
 O         2.405822         1.656031         2.017275
 H         4.871063        -0.580222        -1.307066
 H         5.344344         1.220523        -0.746609
 H         5.260139        -0.245981         0.461253
 H         2.444137         2.254524        -1.175372
 H         2.406500         0.732249        -2.124772
 H         0.286130         0.464634         0.046876
 H         2.113052        -1.329095        -1.181332
 H         1.648996        -0.693398         2.388831
 H         3.422495        -1.055231         2.409901
 H         2.385765         2.364822         1.443171
