19
Iteration:  2699charge 0 multiplicity 1
 C         4.710015         0.096726        -0.358483
 C         3.264782         0.241891        -0.393205
 C         2.252345         1.022886        -1.168256
 C         1.376167         0.272631        -0.047974
 C         2.224466        -0.949744        -0.224043
 O         2.576477        -1.589157         1.012596
 C         2.527481        -0.548571         1.990577
 C         2.561550         0.619639         1.001317
 O         2.541901         1.900036         1.552103
 H         5.116949        -0.916026        -0.352975
 H         5.151170         0.552614        -1.261861
 H         5.266770         0.493284         0.526456
 H         2.034884         2.068990        -1.098288
 H         2.060427         0.709806        -2.266729
 H         0.319085         0.232995         0.048576
 H         2.285092        -1.678874        -1.028890
 H         1.568640        -0.498652         2.544553
 H         3.316964        -0.657018         2.790167
 H         3.089624         2.003703         2.429369
