19
Iteration:  4589charge 0 multiplicity 1
 C         4.806633         0.256088        -0.280336
 C         3.308947         0.280690        -0.292641
 C         2.254441         1.213176        -1.060301
 C         1.343625         0.336393        -0.056890
 C         2.325840        -0.849528        -0.400284
 O         2.370888        -1.681148         0.829838
 C         2.514892        -0.698537         1.794879
 C         2.475359         0.548153         0.988553
 O         2.588775         1.697109         1.857057
 H         5.045653        -0.307755        -1.277703
 H         5.187661         1.275710        -0.229250
 H         5.357948        -0.262403         0.557084
 H         2.217509         2.206595        -0.748946
 H         2.167477         1.015637        -2.120338
 H         0.320629         0.092588         0.100273
 H         2.277065        -1.504990        -1.244090
 H         1.814133        -0.557171         2.608587
 H         3.529179        -0.811287         2.194626
 H         3.465999         1.901300         1.824937
