19
Iteration:  3475charge 0 multiplicity 1
 C         4.804626         0.252418        -0.332029
 C         3.330828         0.282151        -0.272001
 C         2.274042         1.216179        -1.036174
 C         1.380755         0.403869        -0.037311
 C         2.233144        -0.830866        -0.331133
 O         2.414976        -1.737090         0.831720
 C         2.508433        -0.769539         1.820222
 C         2.514085         0.541855         1.059116
 O         2.644854         1.752713         1.687788
 H         5.185943        -0.178740        -1.298264
 H         5.263045         1.252655        -0.324257
 H         5.054322        -0.446420         0.462355
 H         2.486348         2.267709        -0.745620
 H         2.189686         0.952858        -2.045186
 H         0.277764         0.445710        -0.021804
 H         1.992937        -1.412907        -1.240003
 H         1.637290        -0.827723         2.481337
 H         3.480174        -0.826373         2.437625
 H         2.032987         1.712048         2.498379
