19
Iteration:  3909charge 0 multiplicity 1
 C         4.860135         0.235100        -0.329825
 C         3.332301         0.326373        -0.325357
 C         2.225255         1.306010        -1.065273
 C         1.471293         0.311592        -0.027027
 C         2.281338        -0.869542        -0.344522
 O         2.339266        -1.770777         0.851386
 C         2.470248        -0.761138         1.888384
 C         2.525684         0.544395         1.024032
 O         2.610156         1.735275         1.764092
 H         5.282384         0.682819        -1.273570
 H         5.283985         0.709561         0.546978
 H         5.232822        -0.830422        -0.217330
 H         2.200618         2.324423        -0.683049
 H         2.182115         1.146633        -2.224530
 H         0.381191         0.401740         0.165204
 H         2.004419        -1.517833        -1.185304
 H         1.514718        -0.763927         2.466588
 H         3.363501        -0.919730         2.527530
 H         2.473303         2.556122         1.157803
