19
Iteration:  2600
 C         4.727325         0.232028        -0.386660
 C         3.303085         0.244253        -0.285842
 C         2.263007         0.895177        -1.261686
 C         1.393982         0.253987        -0.039417
 C         2.316336        -0.979317        -0.205906
 O         2.444334        -1.663999         1.000003
 C         2.450075        -0.541721         1.969539
 C         2.461145         0.643526         1.033951
 O         2.637029         1.947619         1.673306
 H         5.098789        -0.174963        -1.325061
 H         5.167190         1.228078        -0.334046
 H         5.184057        -0.378566         0.413169
 H         2.310079         1.915853        -1.420877
 H         2.116701         0.277181        -2.194790
 H         0.349888         0.365980         0.045790
 H         2.348246        -1.632474        -1.051403
 H         1.570626        -0.480019         2.589100
 H         3.350249        -0.691946         2.483092
 H         3.323381         2.404051         1.114878
