19
Iteration:   280charge 0 multiplicity 1
 C         4.910479         0.193234        -0.353903
 C         3.310625         0.222172        -0.263657
 C         2.283454         0.755136        -1.325622
 C         1.404827         0.327336        -0.173398
 C         2.247470        -1.019061        -0.099289
 O         2.331207        -1.639697         1.279212
 C         2.612845        -0.388934         1.981119
 C         2.395733         0.628656         0.915134
 O         2.536214         1.930545         1.511827
 H         5.277234        -0.360457         0.595263
 H         5.372166        -0.448635        -1.203164
 H         5.384326         1.248293        -0.330863
 H         2.152060         1.944723        -1.601129
 H         1.917628         0.265712        -2.270315
 H         0.333708         0.380559         0.029686
 H         2.207984        -1.764705        -0.846842
 H         2.101341        -0.401561         2.968476
 H         3.703579        -0.310492         2.127899
 H         2.780442         2.515259         0.693159
