19
Iteration:  2566charge 0 multiplicity 1
 C         4.859912         0.188934        -0.361885
 C         3.244332         0.213592        -0.320012
 C         2.275298         1.070875        -1.104422
 C         1.383489         0.178781        -0.110968
 C         2.242713        -1.069648        -0.211314
 O         2.492876        -1.652598         1.051308
 C         2.438363        -0.499181         1.995500
 C         2.437948         0.630644         1.015387
 O         2.677706         1.908402         1.515847
 H         5.293648         0.404802        -1.361686
 H         5.110669         0.905909         0.403540
 H         5.152700        -0.794915         0.095751
 H         2.279206         2.101633        -0.992762
 H         1.996757         1.019836        -2.202623
 H         0.304662         0.361617         0.071135
 H         2.194140        -1.756878        -0.945113
 H         1.695989        -0.519175         2.785721
 H         3.376842        -0.502557         2.545726
 H         2.390424         2.458836         0.672042
