19
Iteration:  4699charge 0 multiplicity 1
 C         4.789129         0.174355        -0.425369
 C         3.300002         0.281502        -0.237408
 C         2.318385         1.185421        -1.093503
 C         1.384543         0.387083        -0.006784
 C         2.294109        -0.802744        -0.335230
 O         2.516254        -1.704674         0.749706
 C         2.518513        -0.781481         1.830664
 C         2.389355         0.564518         1.111575
 O         2.596798         1.776284         1.844846
 H         5.007641         0.005525        -1.504423
 H         5.370925         1.074902        -0.100324
 H         5.302965        -0.717738         0.051688
 H         2.317687         2.249875        -0.921417
 H         2.153198         0.807873        -2.087026
 H         0.328325         0.255109         0.271311
 H         2.046773        -1.391673        -1.201792
 H         1.656893        -0.873609         2.519198
 H         3.405465        -0.702551         2.433708
 H         1.783993         2.384006         1.871138
