19
Iteration:   973
 C         4.779940         0.133325        -0.357622
 C         3.265435         0.204515        -0.383336
 C         2.248289         0.866043        -1.294889
 C         1.393456         0.210354        -0.045527
 C         2.387403        -1.010553        -0.119480
 O         2.472684        -1.572913         1.203337
 C         2.476153        -0.399555         1.995350
 C         2.470170         0.677026         0.933081
 O         2.607832         1.910307         1.531732
 H         5.254329        -0.655789         0.278923
 H         5.015660        -0.013715        -1.383774
 H         5.202005         1.067009        -0.000793
 H         2.255634         1.934819        -1.426069
 H         2.215848         0.322622        -2.308020
 H         0.270868         0.082490         0.152358
 H         2.125686        -1.756708        -0.895476
 H         1.520372        -0.454377         2.515511
 H         3.301582        -0.295947         2.703549
 H         2.408887         2.544937         0.852023
