19
Iteration:  3930
 C         4.769463         0.280234        -0.310507
 C         3.282994         0.211099        -0.236476
 C         2.340207         1.131518        -1.060357
 C         1.307016         0.450720        -0.119702
 C         2.243112        -0.901913        -0.358157
 O         2.458801        -1.668538         0.775140
 C         2.497075        -0.674359         1.845178
 C         2.391336         0.565374         1.050163
 O         2.737303         1.675042         1.831669
 H         5.133758         0.946428        -1.124256
 H         5.059638         0.635030         0.685492
 H         5.260835        -0.732597        -0.214247
 H         2.593584         2.163007        -0.881030
 H         2.136915         0.714867        -2.131454
 H         0.171671         0.487802        -0.012905
 H         2.155676        -1.598528        -1.206841
 H         1.667856        -0.742502         2.586283
 H         3.472292        -0.849377         2.298267
 H         2.343654         2.457354         1.541001
