19
Iteration:  2536charge 0 multiplicity 1
 C         4.844934         0.113207        -0.351563
 C         3.293278         0.241034        -0.276026
 C         2.298355         0.944305        -1.218461
 C         1.403404         0.297440        -0.067664
 C         2.279717        -0.965296        -0.181652
 O         2.367083        -1.638702         1.063120
 C         2.610681        -0.496277         1.945024
 C         2.511789         0.639501         1.019718
 O         2.515905         1.880823         1.558461
 H         5.221073         0.615127        -1.213788
 H         5.198196         0.733120         0.447016
 H         5.210358        -0.867487        -0.396850
 H         2.282005         2.044397        -1.204107
 H         1.961900         0.482801        -2.177298
 H         0.403930         0.498811         0.109299
 H         2.257324        -1.626848        -1.102065
 H         1.964380        -0.450347         2.839087
 H         3.617478        -0.614656         2.308907
 H         1.952482         2.367402         0.989777
