19
Iteration:  2584charge 0 multiplicity 1
 C         4.766014         0.212339        -0.335764
 C         3.254166         0.242157        -0.209463
 C         2.213840         0.935341        -1.136081
 C         1.340128         0.320888        -0.125191
 C         2.360900        -0.932636        -0.212472
 O         2.477846        -1.652925         1.058132
 C         2.469272        -0.561667         1.963424
 C         2.448373         0.624772         0.991768
 O         2.693668         1.858031         1.514438
 H         5.050927         0.066443        -1.432566
 H         5.230216         1.209858        -0.042849
 H         5.184743        -0.733324         0.149491
 H         2.265314         2.149767        -1.184819
 H         2.202251         0.532285        -2.150155
 H         0.207458         0.089162         0.015455
 H         2.205834        -1.686062        -1.057187
 H         1.544063        -0.746797         2.591000
 H         3.252162        -0.521206         2.825283
 H         2.987142         2.608030         0.867800
