19
Iteration:  1278
 C         4.826415         0.075350        -0.394936
 C         3.324609         0.185470        -0.297171
 C         2.297648         0.829473        -1.274852
 C         1.405048         0.156026        -0.155230
 C         2.325460        -1.013909        -0.138888
 O         2.392408        -1.503277         1.201914
 C         2.635172        -0.374879         2.002921
 C         2.482731         0.672478         0.962251
 O         2.447125         1.958003         1.582715
 H         5.174002        -0.878923        -0.009388
 H         5.115801         0.190062        -1.406377
 H         5.307390         0.799874         0.243400
 H         2.095618         1.888066        -1.491205
 H         2.077969         0.383558        -2.276114
 H         0.197539         0.169504        -0.244844
 H         2.172495        -1.780424        -0.982419
 H         2.021199        -0.272968         2.953957
 H         3.687515        -0.355732         2.405646
 H         2.254862         2.570926         0.788706
