19
Iteration:  1929
 C         4.765173         0.103821        -0.344624
 C         3.284199         0.245586        -0.290710
 C         2.228002         0.819652        -1.253485
 C         1.355102         0.183625        -0.130809
 C         2.305875        -1.016502        -0.116317
 O         2.523829        -1.599311         1.189935
 C         2.524494        -0.375123         1.942846
 C         2.479221         0.681720         0.918976
 O         2.578265         1.924968         1.548601
 H         5.237792        -0.811350        -0.073379
 H         5.032649         0.399804        -1.348104
 H         5.121194         0.867811         0.291372
 H         2.322875         1.988033        -1.215918
 H         2.328343         0.371831        -2.183398
 H         0.219699         0.408275        -0.109241
 H         2.077468        -1.841366        -0.834945
 H         1.604907        -0.166158         2.540395
 H         3.404910        -0.361786         2.537538
 H         2.817235         2.563845         0.849139
