19
Iteration:   344charge 0 multiplicity 1
 C         4.785018         0.113697        -0.458385
 C         3.342803         0.197923        -0.256236
 C         2.295124         0.899384        -1.204515
 C         1.410388         0.280245        -0.087168
 C         2.382996        -1.056957        -0.063847
 O         2.492215        -1.605173         1.217886
 C         2.352089        -0.486983         2.057485
 C         2.449424         0.636069         0.968660
 O         2.603869         2.016585         1.345369
 H         5.195187        -0.709025         0.194114
 H         5.112382         0.008154        -1.506757
 H         5.286533         0.941576        -0.089373
 H         2.361491         1.965544        -1.300209
 H         2.109406         0.599265        -2.250405
 H         0.324523         0.336308         0.251830
 H         2.418760        -1.933766        -0.777261
 H         1.379771        -0.404268         2.577431
 H         3.140053        -0.473771         2.789277
 H         2.031413         2.435522         0.605020
