19
Iteration:  3385charge 0 multiplicity 1
 C         4.852760         0.282378        -0.446119
 C         3.282625         0.298142        -0.298559
 C         2.310033         1.166168        -1.131200
 C         1.398990         0.331170        -0.068365
 C         2.240449        -0.872874        -0.338856
 O         2.339493        -1.672856         0.840543
 C         2.611673        -0.665003         1.835720
 C         2.509749         0.567287         1.032096
 O         2.537245         1.711177         1.908610
 H         5.134824        -0.486727        -1.194861
 H         5.193230         1.116057        -0.974693
 H         5.185187         0.074304         0.622570
 H         2.350574         2.243552        -0.873317
 H         2.289499         0.806368        -2.182035
 H         0.286057         0.552269         0.050405
 H         1.982709        -1.416768        -1.208380
 H         1.775847        -0.786080         2.549966
 H         3.521569        -0.897240         2.438226
 H         2.876345         1.239297         2.739120
