19
Iteration:   763
 C         4.838183         0.192718        -0.436146
 C         3.355818         0.183787        -0.291937
 C         2.317164         0.835412        -1.190596
 C         1.432910         0.182670        -0.092874
 C         2.253277        -1.063265        -0.081079
 O         2.326146        -1.649312         1.164051
 C         2.628867        -0.380711         1.953953
 C         2.504737         0.662988         0.957362
 O         2.453387         1.992046         1.517796
 H         5.144078        -0.738986         0.019048
 H         5.126142         0.176911        -1.448071
 H         5.425697         0.923117         0.189417
 H         2.420528         1.878398        -1.288612
 H         2.276471         0.304652        -2.270187
 H         0.315327         0.455383        -0.052558
 H         2.160032        -1.700497        -0.939506
 H         1.919686        -0.272859         2.793057
 H         3.709465        -0.286412         2.340286
 H         2.155749         2.755883         0.904555
