19
Iteration:  1330charge 0 multiplicity 1
 C         4.794635         0.172535        -0.360828
 C         3.301647         0.117326        -0.267028
 C         2.285740         0.879981        -1.188322
 C         1.341700         0.232055        -0.117449
 C         2.292085        -1.057705        -0.125587
 O         2.542424        -1.567583         1.131800
 C         2.446090        -0.450003         2.074940
 C         2.461413         0.674937         0.961160
 O         2.621666         1.971867         1.373448
 H         5.081446        -0.380162         0.567203
 H         5.331853        -0.333670        -1.214021
 H         5.237036         1.276746        -0.375207
 H         2.224486         2.111573        -1.144171
 H         2.197460         0.426510        -2.117256
 H         0.339348         0.140709         0.215964
 H         2.142081        -1.732358        -0.935306
 H         1.484666        -0.391899         2.552977
 H         3.273146        -0.699554         2.757952
 H         2.094974         2.630614         0.857355
