19
Iteration:  4472
 C         4.787202         0.343639        -0.289788
 C         3.261699         0.269465        -0.161885
 C         2.351175         1.136132        -1.144777
 C         1.400597         0.380209        -0.008599
 C         2.220831        -0.909979        -0.414749
 O         2.330880        -1.722391         0.722158
 C         2.542612        -0.793963         1.893789
 C         2.500470         0.564740         1.087510
 O         2.701904         1.798158         1.775765
 H         5.016198         0.834362        -1.147165
 H         5.134401         0.834130         0.631388
 H         5.214481        -0.661175        -0.285922
 H         2.512239         2.240684        -1.130403
 H         2.411929         0.610820        -2.093354
 H         0.295360         0.309922         0.134729
 H         2.048359        -1.466926        -1.273768
 H         1.765354        -0.650286         2.650478
 H         3.478615        -1.119575         2.394295
 H         1.930369         2.313179         1.584800
