19
Iteration:  3662charge 0 multiplicity 1
 C         4.819168         0.201793        -0.410883
 C         3.386987         0.339561        -0.166786
 C         2.244798         1.198203        -1.026353
 C         1.421739         0.367262        -0.011414
 C         2.346543        -0.830639        -0.317264
 O         2.280033        -1.798994         0.735347
 C         2.492528        -0.799990         1.923074
 C         2.486329         0.564196         1.106110
 O         2.610417         1.839426         1.740061
 H         5.230132        -0.113954        -1.395240
 H         5.352622         1.171746        -0.219437
 H         5.194770        -0.546400         0.257642
 H         2.345512         2.321097        -0.745861
 H         2.072866         1.060677        -2.093305
 H         0.362209         0.362216        -0.133600
 H         2.281432        -1.452743        -1.324813
 H         1.679084        -0.892400         2.636518
 H         3.457318        -1.108506         2.312054
 H         2.499804         2.406771         0.920047
