19
Iteration:  2556charge 0 multiplicity 1
 C         4.809962         0.171505        -0.342431
 C         3.310602         0.154894        -0.345194
 C         2.236747         1.075616        -1.083038
 C         1.385264         0.255485        -0.104851
 C         2.265428        -1.064741        -0.228294
 O         2.434975        -1.645225         1.080587
 C         2.536808        -0.494126         1.982486
 C         2.498766         0.619736         0.968351
 O         2.599321         1.926845         1.509549
 H         5.413198         0.485552        -1.182355
 H         5.142952         0.862907         0.397515
 H         5.181034        -0.839955        -0.173296
 H         2.449055         2.019396        -0.807436
 H         2.115946         0.836301        -2.184271
 H         0.362299         0.086601         0.122154
 H         2.068006        -1.825333        -0.921078
 H         1.626589        -0.631723         2.571289
 H         3.422110        -0.506581         2.549273
 H         2.252461         2.730055         0.993628
