19
Iteration:  3255
 C         4.828255         0.373539        -0.467945
 C         3.329131         0.297284        -0.249832
 C         2.258557         1.091391        -1.091900
 C         1.398558         0.371968        -0.057368
 C         2.235496        -0.873574        -0.285617
 O         2.276866        -1.746007         0.857466
 C         2.614972        -0.703253         1.894018
 C         2.479508         0.537754         1.032054
 O         2.649600         1.722641         1.828894
 H         5.089765         1.370734        -0.959413
 H         5.190482         0.220167         0.591449
 H         5.371192        -0.410852        -1.157818
 H         2.232162         2.225007        -1.088084
 H         2.194948         0.814561        -2.146717
 H         0.229790         0.264617         0.243020
 H         2.130194        -1.534818        -1.139993
 H         1.852931        -0.838582         2.710870
 H         3.616506        -1.030637         2.354220
 H         2.634977         2.488915         1.307743
