19
Iteration:  2362charge 0 multiplicity 1
 C         4.832076         0.122500        -0.444159
 C         3.334648         0.251266        -0.214342
 C         2.318514         0.889086        -1.189176
 C         1.359839         0.308229        -0.097657
 C         2.340631        -0.953779        -0.091650
 O         2.431504        -1.711960         1.086762
 C         2.539153        -0.543760         2.038479
 C         2.427427         0.701932         0.972045
 O         2.492696         1.999330         1.493024
 H         5.437524         0.625659         0.284339
 H         5.036880        -0.990235        -0.447099
 H         5.142187         0.344094        -1.467240
 H         2.258204         1.999013        -1.367454
 H         2.243439         0.423354        -2.107714
 H         0.316253         0.261973        -0.030119
 H         2.162243        -1.756789        -0.960044
 H         1.833999        -0.629784         2.912338
 H         3.626056        -0.572023         2.420807
 H         2.429054         2.740222         0.784368
