19
Iteration:  4815charge 0 multiplicity 1
 C         4.909447         0.381188        -0.394021
 C         3.329671         0.330173        -0.281369
 C         2.141282         1.135824        -1.174985
 C         1.395281         0.352029        -0.100510
 C         2.231666        -0.883191        -0.279285
 O         2.438085        -1.781353         0.850928
 C         2.392673        -0.711354         1.916068
 C         2.586152         0.545076         0.993067
 O         2.666959         1.696772         1.889949
 H         4.948656         1.169079        -1.227184
 H         5.181572         0.744151         0.560648
 H         5.267672        -0.558449        -0.684892
 H         2.157524         2.190594        -1.015039
 H         1.980348         0.681721        -2.190179
 H         0.374131         0.284351         0.166539
 H         1.928066        -1.436698        -1.149436
 H         1.461395        -0.787311         2.474977
 H         3.208385        -0.890266         2.627890
 H         3.086936         2.492590         1.411978
