19
Iteration:  4141
 C         4.872136         0.243932        -0.288713
 C         3.393196         0.204677        -0.349894
 C         2.269822         1.238913        -1.045886
 C         1.417390         0.370200        -0.012438
 C         2.257177        -0.860592        -0.392309
 O         2.336611        -1.711683         0.766157
 C         2.489502        -0.708853         1.873071
 C         2.531313         0.575694         1.032447
 O         2.592983         1.678311         1.861079
 H         5.398688        -0.223493        -1.164652
 H         5.164118         1.314231        -0.135278
 H         5.296237        -0.143214         0.620424
 H         2.204880         2.307230        -1.038665
 H         2.018445         1.016382        -2.139830
 H         0.359763         0.515030         0.123574
 H         1.861867        -1.399032        -1.329225
 H         1.636479        -0.619288         2.541011
 H         3.366386        -1.039307         2.420514
 H         2.160931         2.370432         1.245080
