19
Iteration:  3140
 C         4.855078         0.208669        -0.403285
 C         3.318022         0.184842        -0.369793
 C         2.254419         1.112791        -1.088079
 C         1.372532         0.385842         0.014933
 C         2.254015        -0.906098        -0.279332
 O         2.357309        -1.665312         0.881077
 C         2.659588        -0.716404         1.885644
 C         2.462570         0.539527         1.033609
 O         2.478935         1.870978         1.716912
 H         5.251243         0.328762         0.648109
 H         5.318357        -0.669620        -0.919078
 H         5.135828         1.105756        -0.942963
 H         2.416034         2.198709        -0.871017
 H         1.991322         0.913864        -2.161819
 H         0.371139         0.367114         0.150260
 H         2.137809        -1.495997        -1.224083
 H         1.966606        -0.748325         2.762845
 H         3.725992        -0.743571         2.245672
 H         3.282433         2.084220         2.188339
