19
Iteration:  1520charge 0 multiplicity 1
 C         4.845624         0.195934        -0.364742
 C         3.298425         0.187776        -0.322686
 C         2.274743         0.748333        -1.291052
 C         1.342629         0.138256        -0.207988
 C         2.335046        -1.025093        -0.147826
 O         2.314498        -1.543609         1.204558
 C         2.619179        -0.473121         2.044004
 C         2.448178         0.738458         0.933574
 O         2.552678         2.026586         1.614213
 H         5.324489        -0.683214         0.210207
 H         5.051942         0.073956        -1.492672
 H         5.220165         1.230759        -0.129413
 H         2.461365         1.862521        -1.338483
 H         2.263526         0.318229        -2.289615
 H         0.348413         0.041228        -0.172070
 H         2.267600        -1.889965        -0.814998
 H         1.870228        -0.685857         2.825718
 H         3.662275        -0.465583         2.464646
 H         2.783538         2.695418         0.900728
