19
Iteration:  2746charge 0 multiplicity 1
 C         4.763423         0.250113        -0.426453
 C         3.261976         0.260372        -0.212918
 C         2.267657         0.949670        -1.194692
 C         1.425554         0.274676        -0.095969
 C         2.285895        -0.948124        -0.227384
 O         2.347810        -1.632404         0.994039
 C         2.609247        -0.627332         1.977608
 C         2.494513         0.561396         1.035630
 O         2.539667         1.937996         1.595368
 H         5.267129        -0.374766         0.301808
 H         5.115799        -0.050883        -1.425349
 H         5.270983         1.152860        -0.113447
 H         2.387988         2.097209        -1.351932
 H         2.260101         0.461880        -2.161979
 H         0.327969         0.451122         0.107551
 H         1.998272        -1.760840        -1.150845
 H         1.896710        -0.525526         2.823273
 H         3.582338        -0.707187         2.434390
 H         3.486061         2.064209         1.808738
