19
Iteration:  1560
 C         4.845632         0.196873        -0.406449
 C         3.307137         0.101466        -0.341230
 C         2.277624         0.928452        -1.198685
 C         1.379665         0.247361        -0.099918
 C         2.346661        -1.051506        -0.103291
 O         2.488513        -1.605739         1.170490
 C         2.419390        -0.477758         2.075906
 C         2.471795         0.655178         0.988896
 O         2.544170         1.979494         1.417515
 H         5.199372        -0.243216         0.520447
 H         5.269231        -0.375430        -1.187754
 H         5.261720         1.227271        -0.540594
 H         2.485755         2.028946        -1.173626
 H         2.015470         0.568139        -2.235539
 H         0.179811         0.240155         0.027643
 H         2.092641        -1.870617        -0.882104
 H         1.535925        -0.248410         2.679326
 H         3.310856        -0.755250         2.700692
 H         2.656925         2.592866         0.678082
