19
Iteration:  4580
 C         4.777268         0.234692        -0.311114
 C         3.316427         0.306560        -0.272494
 C         2.271665         1.254581        -0.983941
 C         1.412266         0.284197        -0.082708
 C         2.286312        -0.897049        -0.428856
 O         2.390846        -1.692595         0.788660
 C         2.526323        -0.686722         1.855269
 C         2.462786         0.491708         1.047743
 O         2.568404         1.762948         1.812243
 H         5.069440        -0.160423        -1.299452
 H         5.337223         1.188757        -0.280280
 H         5.186065        -0.516737         0.429555
 H         2.281112         2.353774        -0.786652
 H         2.049681         1.057952        -2.059798
 H         0.342125         0.372660         0.153580
 H         2.354993        -1.496538        -1.289747
 H         1.655931        -0.773480         2.524090
 H         3.474889        -0.842328         2.441745
 H         3.360587         2.174574         1.637086
