19
Iteration:  1407charge 0 multiplicity 1
 C         4.800907         0.116976        -0.408113
 C         3.314167         0.174774        -0.383726
 C         2.278650         0.774604        -1.320211
 C         1.412220         0.294369        -0.139910
 C         2.371326        -1.046691        -0.054915
 O         2.408306        -1.624823         1.217759
 C         2.538501        -0.444214         1.971426
 C         2.437059         0.744298         0.977974
 O         2.459793         1.973605         1.599841
 H         5.384385        -0.253220         0.489968
 H         5.290487        -0.392403        -1.277913
 H         5.086390         1.266210        -0.664450
 H         2.438608         1.961392        -1.442268
 H         2.259442         0.370120        -2.285430
 H         0.302584         0.463919         0.090320
 H         2.381036        -1.760503        -0.922168
 H         1.854120        -0.484646         2.798193
 H         3.606942        -0.405506         2.385292
 H         2.765883         2.628068         1.020140
