19
Iteration:  2264charge 0 multiplicity 1
 C         4.862085         0.262857        -0.332875
 C         3.365587         0.211078        -0.289770
 C         2.218187         0.852050        -1.269284
 C         1.425032         0.303261        -0.127461
 C         2.251724        -1.064226        -0.078077
 O         2.290697        -1.660635         1.188631
 C         2.606532        -0.460086         2.009809
 C         2.487605         0.658516         0.882325
 O         2.545304         1.907337         1.525810
 H         5.408081        -0.125322         0.489807
 H         5.126967        -0.135874        -1.334387
 H         5.184458         1.288911        -0.420546
 H         2.462549         1.981437        -1.443647
 H         2.054115         0.206560        -2.263629
 H         0.396236         0.313687        -0.123355
 H         2.059778        -1.847707        -0.957708
 H         2.110973        -0.453150         2.952135
 H         3.683202        -0.621645         2.317716
 H         2.631330         2.627397         0.799833
