19
Iteration:   146
 C         4.808314         0.192994        -0.386856
 C         3.296609         0.128342        -0.281639
 C         2.271133         0.795430        -1.182924
 C         1.375514         0.212667        -0.103463
 C         2.328830        -1.021372        -0.102741
 O         2.269525        -1.581302         1.229503
 C         2.669064        -0.434307         1.983324
 C         2.477708         0.685189         0.969646
 O         2.516317         2.034580         1.316167
 H         5.373163        -0.714736         0.130688
 H         5.179394         0.064836        -1.414675
 H         5.158500         1.130641        -0.046341
 H         2.554379         1.802453        -1.226205
 H         2.214082         0.461760        -2.285834
 H         0.270106         0.128931        -0.092693
 H         2.396415        -1.764634        -0.939434
 H         2.126128        -0.352905         2.921864
 H         3.750874        -0.425718         2.200318
 H         2.766683         2.061555         2.247793
