19
Iteration:  4173charge 0 multiplicity 1
 C         4.757486         0.135531        -0.409114
 C         3.323901         0.331250        -0.164198
 C         2.356562         1.156145        -1.121054
 C         1.396761         0.398823        -0.154774
 C         2.368291        -0.853860        -0.375664
 O         2.448555        -1.715235         0.773476
 C         2.449567        -0.682098         1.875023
 C         2.345239         0.637194         1.138252
 O         2.595554         1.673486         1.968446
 H         4.908743         0.369084        -1.561026
 H         5.284476         1.072345        -0.040822
 H         5.111300        -0.832405        -0.133792
 H         2.299557         2.245158        -1.247636
 H         2.373010         0.650917        -2.155784
 H         0.313142         0.474486        -0.204197
 H         2.131078        -1.394182        -1.392576
 H         1.713060        -0.776591         2.660644
 H         3.425115        -0.722202         2.330095
 H         2.863804         2.442108         1.398949
