19
Iteration:  1416charge 0 multiplicity 1
 C         4.835736         0.135198        -0.442416
 C         3.307181         0.132938        -0.329340
 C         2.297554         0.786684        -1.284423
 C         1.405685         0.269828        -0.133550
 C         2.336048        -1.021311        -0.152458
 O         2.447308        -1.588240         1.212697
 C         2.569032        -0.405604         2.004188
 C         2.418665         0.714458         0.966116
 O         2.469499         1.974916         1.585530
 H         5.144844        -0.321219         0.509455
 H         5.184674        -0.480080        -1.283157
 H         5.338109         1.149602        -0.371929
 H         2.325449         1.895198        -1.305302
 H         2.087023         0.439053        -2.251875
 H         0.200681         0.181574         0.023597
 H         2.243662        -1.746355        -0.917367
 H         1.721002        -0.333563         2.686263
 H         3.439355        -0.558176         2.650374
 H         2.708514         2.588820         0.930813
