19
Iteration:   791
 C         4.831023         0.219480        -0.455352
 C         3.349608         0.123555        -0.266302
 C         2.287770         0.895615        -1.208855
 C         1.383706         0.195403        -0.113509
 C         2.304322        -1.038069        -0.097206
 O         2.367255        -1.558267         1.198782
 C         2.526674        -0.533770         2.055510
 C         2.475884         0.632651         1.015134
 O         2.500980         1.992488         1.407988
 H         5.393955        -0.696507        -0.151316
 H         5.064009         0.387239        -1.587476
 H         5.319217         0.986700         0.113279
 H         2.403334         2.047319        -1.170388
 H         2.310501         0.429850        -2.138772
 H         0.329016         0.419036        -0.029582
 H         2.316238        -1.801671        -0.887637
 H         1.853516        -0.398126         2.915155
 H         3.588489        -0.483673         2.433372
 H         2.716088         2.568054         0.622939
