19
Iteration:  2543charge 0 multiplicity 1
 C         4.833323         0.140647        -0.325812
 C         3.299105         0.152173        -0.336078
 C         2.266557         0.975068        -1.136056
 C         1.399532         0.282729        -0.040124
 C         2.326385        -0.941779        -0.209066
 O         2.382933        -1.644146         1.092066
 C         2.601721        -0.530912         1.936732
 C         2.501670         0.642057         0.931990
 O         2.537826         1.899442         1.548147
 H         5.010531         0.607161        -1.336225
 H         5.183944         0.696545         0.555310
 H         5.241566        -0.926230        -0.237722
 H         2.247765         2.043626        -1.129873
 H         2.099388         0.816960        -2.245893
 H         0.267140         0.472679         0.014562
 H         2.174413        -1.583689        -0.987371
 H         1.877337        -0.256001         2.731225
 H         3.530192        -0.647519         2.552118
 H         2.002524         2.392315         0.957564
