19
Iteration:  2463charge 0 multiplicity 1
 C         4.880800         0.155404        -0.454274
 C         3.315109         0.185812        -0.268878
 C         2.210011         1.015788        -1.140327
 C         1.400408         0.251915        -0.117400
 C         2.276370        -1.027969        -0.146142
 O         2.483471        -1.666710         1.100106
 C         2.407417        -0.520519         2.043126
 C         2.493489         0.643278         0.961387
 O         2.572226         1.947687         1.512908
 H         5.308425         0.970802        -1.087160
 H         5.286479         0.421830         0.589742
 H         5.173569        -0.802255        -0.881228
 H         2.293302         2.125444        -0.980152
 H         2.181230         0.729058        -2.090443
 H         0.299025         0.215729         0.077323
 H         2.362170        -1.758930        -1.021351
 H         1.410012        -0.512274         2.496518
 H         3.297029        -0.483644         2.762378
 H         2.797356         2.496351         0.773635
