19
Iteration:  4742
 C         4.823565         0.153446        -0.364275
 C         3.306458         0.297272        -0.312703
 C         2.243248         1.189630        -1.091219
 C         1.391909         0.316580        -0.021011
 C         2.312585        -0.862382        -0.336618
 O         2.361743        -1.687746         0.824110
 C         2.651308        -0.634289         1.828953
 C         2.448391         0.664996         1.005944
 O         2.523914         1.653223         1.906866
 H         5.180779         0.739104        -1.231635
 H         5.205194         0.711999         0.509982
 H         5.194679        -0.903953        -0.416297
 H         2.311343         2.254813        -0.835872
 H         2.068771         0.921800        -2.150923
 H         0.328629         0.169939        -0.037593
 H         2.248852        -1.362029        -1.291810
 H         2.055220        -0.850787         2.768871
 H         3.719945        -0.736374         2.076227
 H         2.484234         2.442496         1.382768
