19
Iteration:  2195charge 0 multiplicity 1
 C         4.786431         0.042763        -0.414314
 C         3.306046         0.204993        -0.305159
 C         2.227451         0.825854        -1.315868
 C         1.399383         0.234003        -0.081561
 C         2.359951        -0.984836        -0.116378
 O         2.572373        -1.594877         1.118002
 C         2.455268        -0.472915         2.056499
 C         2.462890         0.727003         1.007192
 O         2.549481         2.003327         1.531631
 H         5.012460        -1.000631        -0.221241
 H         5.148617         0.421123        -1.313288
 H         5.211210         0.670481         0.405742
 H         2.387222         1.987572        -1.559029
 H         2.096271         0.244532        -2.180596
 H         0.301860         0.332983         0.108750
 H         2.022716        -1.602736        -0.915967
 H         1.398082        -0.474542         2.478344
 H         3.109738        -0.435336         2.927837
 H         2.505651         2.746723         0.888451
