19
Iteration:  4446
 C         4.894932         0.299798        -0.267707
 C         3.292903         0.255186        -0.258661
 C         2.228746         1.279290        -0.936234
 C         1.360085         0.380783        -0.019338
 C         2.296862        -0.902876        -0.382631
 O         2.366123        -1.770956         0.820761
 C         2.467246        -0.831889         1.842190
 C         2.425746         0.571035         1.029130
 O         2.731581         1.752234         1.620136
 H         5.395180         0.612757        -1.269451
 H         5.070678         0.984117         0.529749
 H         5.367084        -0.587535         0.133855
 H         2.499184         2.290573        -0.601753
 H         2.008952         1.320053        -2.052786
 H         0.294614         0.295107        -0.005813
 H         2.157700        -1.616545        -1.286963
 H         1.620592        -0.705579         2.554310
 H         3.394959        -1.000653         2.424179
 H         2.136430         2.424805         1.405759
