19
Iteration:    88
 C         4.780780         0.092672        -0.374253
 C         3.281076         0.197312        -0.274335
 C         2.161360         0.846551        -1.270615
 C         1.457687         0.231154        -0.059546
 C         2.376109        -1.073607        -0.137795
 O         2.523459        -1.609025         1.186553
 C         2.427910        -0.391141         1.995856
 C         2.445951         0.687029         0.967164
 O         2.568442         2.050773         1.390350
 H         5.155798        -0.504421         0.418951
 H         4.917307        -0.403227        -1.329015
 H         5.333811         1.023131        -0.362715
 H         2.216580         1.942614        -1.304488
 H         2.078051         0.412353        -2.214437
 H         0.376949         0.223778         0.065311
 H         2.279373        -1.813664        -0.930123
 H         1.495111        -0.470150         2.554758
 H         3.167767        -0.335106         2.759833
 H         3.441506         2.130154         1.923984
