19
Iteration:  2205charge 0 multiplicity 1
 C         4.809302         0.090451        -0.390262
 C         3.255743         0.286434        -0.320401
 C         2.244492         0.856924        -1.263773
 C         1.344154         0.316545        -0.067489
 C         2.335248        -1.012854        -0.129038
 O         2.585192        -1.658035         1.176377
 C         2.382506        -0.536257         2.064887
 C         2.449003         0.702177         0.968210
 O         2.609413         2.018416         1.455780
 H         5.067057        -0.981802        -0.243421
 H         5.221535         0.322996        -1.350173
 H         5.401812         0.688749         0.363020
 H         2.508896         1.942370        -1.567690
 H         2.163876         0.294044        -2.093355
 H         0.193541         0.206641         0.071627
 H         2.431382        -1.804968        -0.794328
 H         1.448742        -0.664584         2.745299
 H         3.321374        -0.508608         2.608656
 H         2.389632         2.650297         0.778765
