19
Iteration:  1097
 C         4.833036         0.095257        -0.474767
 C         3.341020         0.233967        -0.288947
 C         2.301866         0.806435        -1.171705
 C         1.405111         0.248838        -0.086351
 C         2.325047        -1.059697        -0.130710
 O         2.538404        -1.632424         1.157322
 C         2.438210        -0.438170         2.004948
 C         2.374542         0.714932         0.948379
 O         2.550918         2.030504         1.551512
 H         5.222720        -0.487930         0.419009
 H         5.006777        -0.478195        -1.440862
 H         5.191062         1.091229        -0.656080
 H         2.124128         1.969943        -1.363602
 H         2.290784         0.513019        -2.204329
 H         0.372487         0.345795        -0.054786
 H         2.078268        -1.938014        -0.784425
 H         1.471084        -0.346646         2.580560
 H         3.341641        -0.441809         2.740729
 H         2.356130         2.533104         0.795375
