19
Iteration:  2831
 C         4.827737         0.079263        -0.385104
 C         3.324788         0.271153        -0.371931
 C         2.204046         0.908157        -1.212470
 C         1.356011         0.398605        -0.029639
 C         2.282468        -0.906404        -0.251299
 O         2.571872        -1.585987         0.962094
 C         2.520224        -0.604737         1.944056
 C         2.410029         0.670543         1.019324
 O         2.543405         1.870308         1.709786
 H         5.346177         0.548112         0.481429
 H         5.135689        -1.021906        -0.439160
 H         5.089543         0.561839        -1.403937
 H         2.220211         2.073573        -1.228221
 H         2.033469         0.336350        -2.135360
 H         0.221186         0.498490        -0.084527
 H         1.890378        -1.432083        -1.104598
 H         1.569025        -0.695670         2.522631
 H         3.458786        -0.475048         2.614788
 H         3.193114         1.610384         2.442675
