19
Iteration:  3800charge 0 multiplicity 1
 C         4.783751         0.248383        -0.291148
 C         3.326041         0.283901        -0.204298
 C         2.296276         1.202274        -1.020233
 C         1.433662         0.385541        -0.067799
 C         2.266668        -0.851990        -0.297499
 O         2.351561        -1.735372         0.722348
 C         2.462615        -0.820608         1.838862
 C         2.509440         0.554086         1.060623
 O         2.686997         1.783352         1.768650
 H         5.081538        -0.671390        -0.864295
 H         4.965727         1.109974        -0.893385
 H         5.287210         0.135813         0.698900
 H         2.408179         2.265906        -0.900568
 H         2.173304         1.090375        -2.122667
 H         0.323811         0.319731        -0.058304
 H         2.227265        -1.329498        -1.282423
 H         1.587315        -0.939498         2.531801
 H         3.446502        -0.882530         2.367848
 H         2.049564         2.452142         1.418801
