19
Iteration:  2812charge 0 multiplicity 1
 C         4.759523         0.148624        -0.480321
 C         3.284874         0.256433        -0.221245
 C         2.235802         0.998870        -1.206860
 C         1.364969         0.328210        -0.116267
 C         2.373258        -0.961468        -0.199679
 O         2.484848        -1.737355         0.971627
 C         2.477373        -0.571002         1.910816
 C         2.456801         0.633097         1.052111
 O         2.581166         1.983481         1.678789
 H         5.205877         0.449163         0.479160
 H         4.866731        -0.926046        -0.699531
 H         5.087826         0.812834        -1.272563
 H         2.334510         2.184150        -1.078644
 H         2.136414         0.595246        -2.215403
 H         0.294759         0.382349         0.261028
 H         2.397461        -1.691607        -1.244976
 H         1.591268        -0.479089         2.619867
 H         3.439257        -0.743809         2.503839
 H         3.260185         1.834295         2.348376
