19
Iteration:   658
 C         4.815675         0.200492        -0.466871
 C         3.357101         0.242546        -0.217846
 C         2.306302         0.812010        -1.202635
 C         1.406772         0.189800        -0.193141
 C         2.231743        -1.043183        -0.168344
 O         2.330371        -1.647568         1.193811
 C         2.570068        -0.411527         2.040450
 C         2.563409         0.624573         0.985962
 O         2.500665         2.004435         1.513703
 H         5.369314        -0.024641         0.517891
 H         5.259051        -0.500946        -1.235756
 H         4.939860         1.263440        -0.756284
 H         2.141619         2.041460        -1.097480
 H         2.251681         0.396357        -2.176407
 H         0.384934         0.018273        -0.308901
 H         2.185006        -1.917138        -0.973192
 H         1.905585        -0.381519         2.906475
 H         3.586981        -0.405410         2.476206
 H         2.763530         2.768119         0.977333
