19
Iteration:   577charge 0 multiplicity 1
 C         4.774991         0.072594        -0.336798
 C         3.289055         0.176646        -0.263221
 C         2.240588         0.907470        -1.128525
 C         1.399388         0.302045        -0.107016
 C         2.365770        -1.063351        -0.191540
 O         2.583898        -1.618732         1.180490
 C         2.456837        -0.420695         1.996803
 C         2.379071         0.612137         0.972185
 O         2.595479         2.011602         1.375460
 H         5.104316        -0.731283         0.267650
 H         5.073405        -0.027639        -1.369612
 H         5.304726         0.990261         0.140941
 H         2.096949         2.064873        -1.132348
 H         2.084304         0.457399        -2.186900
 H         0.272882         0.412601        -0.019642
 H         2.360225        -1.895568        -0.800759
 H         1.492614        -0.374908         2.554291
 H         3.324731        -0.501462         2.669331
 H         2.259537         2.624270         0.654765
