19
Iteration:  2930charge 0 multiplicity 1
 C         4.874994         0.311203        -0.443149
 C         3.328395         0.192254        -0.366122
 C         2.252981         0.976873        -1.152728
 C         1.377586         0.320780        -0.089539
 C         2.262822        -1.030239        -0.323522
 O         2.402927        -1.655277         1.003590
 C         2.498046        -0.603853         1.927102
 C         2.463894         0.632711         1.004776
 O         2.579986         1.874506         1.802107
 H         5.158517         0.867474        -1.368505
 H         5.339205         0.617524         0.551231
 H         5.331037        -0.695575        -0.717837
 H         2.301434         2.157119        -1.205090
 H         1.988161         0.775753        -2.185566
 H         0.261673         0.310544         0.147499
 H         1.860395        -1.750500        -1.048310
 H         1.624425        -0.315693         2.522471
 H         3.197659        -0.702243         2.763862
 H         3.606341         1.973660         1.942185
