19
Iteration:  1810
 C         4.852881         0.052461        -0.397178
 C         3.287664         0.194346        -0.389970
 C         2.252774         0.873597        -1.271589
 C         1.447861         0.242678        -0.077489
 C         2.309826        -0.984519        -0.176088
 O         2.538115        -1.590461         1.141142
 C         2.456688        -0.423987         2.058504
 C         2.409814         0.716165         1.010139
 O         2.517239         1.949663         1.563837
 H         5.358545        -0.140328         0.591401
 H         5.111601        -0.744037        -1.151720
 H         5.298996         1.043272        -0.889096
 H         2.122678         1.969517        -1.248719
 H         2.389128         0.421597        -2.302201
 H         0.300608         0.124920         0.163230
 H         2.117500        -1.804625        -0.878300
 H         1.448282        -0.518724         2.591778
 H         3.276551        -0.526674         2.812433
 H         2.586155         2.728358         0.934459
