19
Iteration:   739
 C         4.824627         0.068598        -0.367924
 C         3.327014         0.175814        -0.329837
 C         2.200630         0.848162        -1.319464
 C         1.395595         0.258898        -0.146696
 C         2.373035        -0.942216        -0.139627
 O         2.443651        -1.581180         1.158654
 C         2.604297        -0.424428         2.090477
 C         2.419449         0.660072         1.002590
 O         2.537458         1.935128         1.530917
 H         5.257945        -0.654790         0.299480
 H         5.197956        -0.065209        -1.410849
 H         5.208243         1.020558         0.029431
 H         2.372337         1.882224        -1.534661
 H         1.932123         0.301934        -2.342607
 H         0.239527         0.120895        -0.153687
 H         2.203875        -1.632667        -0.893962
 H         1.698794        -0.476318         2.703827
 H         3.480540        -0.173420         2.668959
 H         2.082231         2.621383         1.106408
