19
Iteration:  4402
 C         4.853595         0.200694        -0.353276
 C         3.322136         0.287192        -0.276849
 C         2.301540         1.195733        -1.175617
 C         1.329280         0.466740        -0.069346
 C         2.335869        -0.857474        -0.350128
 O         2.406195        -1.761217         0.751048
 C         2.518674        -0.751822         1.874179
 C         2.401790         0.610273         1.086418
 O         2.623926         1.736385         1.963971
 H         4.868047        -0.284785        -1.383225
 H         5.271318         1.161137        -0.341776
 H         5.287023        -0.439283         0.384492
 H         2.453781         2.288493        -1.226007
 H         2.262773         0.705789        -2.200754
 H         0.282487         0.438583         0.210161
 H         2.247352        -1.492845        -1.338768
 H         1.695072        -1.051623         2.561258
 H         3.480898        -0.739404         2.452881
 H         2.021089         2.336305         1.595253
