19
Iteration:   450charge 0 multiplicity 1
 C         4.762584         0.168834        -0.351546
 C         3.332124         0.199790        -0.283647
 C         2.293319         0.900152        -1.274186
 C         1.363079         0.233988        -0.099012
 C         2.283283        -0.998027        -0.129269
 O         2.470228        -1.566301         1.212640
 C         2.434053        -0.514710         2.097906
 C         2.524435         0.643172         0.960556
 O         2.615296         1.927186         1.372089
 H         5.301695        -0.161341         0.583164
 H         5.191113        -0.503411        -1.083977
 H         5.222278         1.159181        -0.628558
 H         2.311946         1.987335        -1.121074
 H         2.303071         0.626930        -2.380631
 H         0.273921         0.230230         0.058401
 H         2.362577        -1.849336        -0.945141
 H         1.416091        -0.460652         2.538576
 H         3.182609        -0.636948         2.920023
 H         2.259323         2.581932         0.631388
