19
Iteration:  3510
 C         4.831583         0.219556        -0.397265
 C         3.317269         0.333581        -0.283365
 C         2.261973         1.085583        -1.159013
 C         1.406659         0.452122        -0.087026
 C         2.386949        -0.835924        -0.325945
 O         2.316646        -1.744653         0.867105
 C         2.512859        -0.754454         1.814153
 C         2.418719         0.596490         1.083020
 O         2.560859         1.812234         1.864978
 H         5.122360         0.353824        -1.453821
 H         5.343796         0.860805         0.426597
 H         5.188154        -0.758831        -0.137412
 H         2.473499         2.158131        -1.147930
 H         2.143496         0.810011        -2.192807
 H         0.337716         0.307509        -0.169368
 H         2.117748        -1.411386        -1.324633
 H         1.852022        -1.012164         2.692095
 H         3.591112        -0.874730         2.219041
 H         3.251100         1.670331         2.613134
