19
Iteration:   794charge 0 multiplicity 1
 C         4.831241         0.219913        -0.458702
 C         3.347818         0.171373        -0.262977
 C         2.274356         0.892622        -1.168140
 C         1.402657         0.160956        -0.130892
 C         2.272280        -1.045439        -0.095908
 O         2.380150        -1.547260         1.189036
 C         2.520541        -0.551383         2.049672
 C         2.489775         0.657512         0.999391
 O         2.520962         1.982931         1.409463
 H         5.290951        -0.700632        -0.152940
 H         5.145792         0.362001        -1.520421
 H         5.359683         1.031537         0.096444
 H         2.423559         1.938119        -1.166322
 H         2.257949         0.352117        -2.235986
 H         0.267294         0.470272        -0.067383
 H         2.289267        -1.835772        -0.750887
 H         1.785510        -0.445341         2.852594
 H         3.451135        -0.316302         2.505348
 H         2.743469         2.451832         0.654404
