19
Iteration:  3021charge 0 multiplicity 1
 C         4.802421         0.129215        -0.390717
 C         3.311784         0.306135        -0.250835
 C         2.262938         1.174106        -1.023393
 C         1.356737         0.292901        -0.093902
 C         2.322876        -0.939482        -0.275812
 O         2.346048        -1.707737         0.933801
 C         2.671255        -0.657610         1.904784
 C         2.463270         0.600508         0.989905
 O         2.585498         1.907629         1.620533
 H         5.027699        -0.813871        -0.907911
 H         5.174718         0.960069        -0.967103
 H         5.418178         0.123141         0.478814
 H         2.134855         2.156163        -0.826389
 H         2.220853         0.978350        -2.075788
 H         0.332204         0.222992         0.063236
 H         2.159635        -1.650578        -1.138338
 H         2.045536        -0.715250         2.732643
 H         3.645555        -0.906622         2.293297
 H         1.745356         1.926993         2.126323
