19
Iteration:   210
 C         4.868499         0.059082        -0.487526
 C         3.308492         0.142909        -0.247683
 C         2.245604         0.855120        -1.179241
 C         1.384446         0.203050        -0.085125
 C         2.248147        -0.970935        -0.156884
 O         2.598182        -1.558344         1.197054
 C         2.350254        -0.394051         2.051552
 C         2.435021         0.698913         1.008503
 O         2.533033         2.006136         1.361529
 H         5.265385        -0.523403         0.370845
 H         5.129428        -0.410986        -1.402766
 H         5.267970         1.012061        -0.459544
 H         2.304404         1.852867        -1.255349
 H         2.240607         0.387184        -2.200819
 H         0.275890         0.181729        -0.098054
 H         2.343457        -1.801544        -0.939510
 H         1.453545        -0.486056         2.633617
 H         3.219368        -0.342812         2.666139
 H         3.415512         2.191403         1.877645
