19
Iteration:  3731
 C         4.890466         0.204685        -0.392562
 C         3.312796         0.393095        -0.221121
 C         2.282015         1.042129        -1.132823
 C         1.409037         0.412038        -0.058873
 C         2.321182        -0.766013        -0.283293
 O         2.335104        -1.702160         0.699571
 C         2.477034        -0.723725         1.849601
 C         2.451212         0.628840         1.109472
 O         2.592098         1.663172         1.943575
 H         5.123711        -0.730806        -0.846050
 H         5.336267         0.972956        -1.073098
 H         5.328917         0.032081         0.591741
 H         2.265437         2.118433        -1.245808
 H         2.108657         0.598283        -2.177599
 H         0.295955         0.332887         0.029582
 H         2.159503        -1.207686        -1.246869
 H         1.702311        -0.939841         2.624237
 H         3.471314        -1.026356         2.207769
 H         2.747942         2.523901         1.381561
