19
Iteration:  2011charge 0 multiplicity 1
 C         4.910113         0.074575        -0.527246
 C         3.409459         0.142356        -0.264948
 C         2.283861         0.955586        -1.105860
 C         1.393697         0.236117        -0.195768
 C         2.252129        -0.966947        -0.133900
 O         2.368820        -1.619054         1.211626
 C         2.593443        -0.480443         2.055777
 C         2.408187         0.667900         0.975905
 O         2.440285         1.971995         1.471616
 H         5.414109        -0.189328         0.452667
 H         5.323663        -0.559789        -1.372794
 H         5.256282         1.167138        -0.753615
 H         2.511791         2.002363        -1.061818
 H         2.070550         0.763198        -2.252825
 H         0.355564         0.123512        -0.018233
 H         2.279030        -1.849585        -0.797732
 H         1.942102        -0.403635         2.936655
 H         3.665807        -0.519672         2.456037
 H         2.318952         2.614118         0.812387
