19
Iteration:  2806charge 0 multiplicity 1
 C         4.731319         0.186221        -0.480561
 C         3.308855         0.297445        -0.251095
 C         2.261621         1.018996        -1.168833
 C         1.385020         0.264943        -0.114280
 C         2.365612        -0.962997        -0.230807
 O         2.426663        -1.709348         0.996913
 C         2.505115        -0.616350         1.986260
 C         2.481571         0.603311         1.031101
 O         2.567781         1.970529         1.627256
 H         5.285070         0.321155         0.470594
 H         4.938425        -0.847578        -0.783175
 H         5.011765         0.861644        -1.307179
 H         2.300897         1.998438        -0.904340
 H         2.256846         0.745007        -2.249563
 H         0.354837         0.403071         0.131952
 H         2.234526        -1.473933        -1.059603
 H         1.598218        -0.459107         2.545815
 H         3.384365        -0.743455         2.571196
 H         3.354464         1.864154         2.306116
