19
Iteration:  1953charge 0 multiplicity 1
 C         4.854973         0.061916        -0.400146
 C         3.344459         0.155493        -0.446249
 C         2.151536         0.804329        -1.344242
 C         1.418305         0.298851        -0.100091
 C         2.359868        -1.010904        -0.160361
 O         2.559660        -1.551215         1.144411
 C         2.412723        -0.420107         2.077831
 C         2.404669         0.703430         1.022051
 O         2.565633         1.966167         1.610696
 H         5.175596        -0.868950         0.136929
 H         5.342168         0.093118        -1.351131
 H         5.192772         0.926655         0.258568
 H         2.483044         1.920110        -1.395673
 H         1.854420         0.242717        -2.263092
 H         0.285789         0.363050         0.245353
 H         2.230835        -1.844944        -0.768777
 H         1.526410        -0.493231         2.755945
 H         3.354031        -0.389921         2.608186
 H         2.300556         2.646015         0.882677
