19
Iteration:  2324charge 0 multiplicity 1
 C         4.874795         0.065868        -0.458623
 C         3.349772         0.263382        -0.355281
 C         2.224058         0.972117        -1.119456
 C         1.381621         0.220170        -0.082760
 C         2.304568        -1.031834        -0.137282
 O         2.550394        -1.581975         1.179414
 C         2.401756        -0.422867         2.046495
 C         2.470679         0.623944         0.893951
 O         2.544180         1.870245         1.513245
 H         5.385642         0.331592         0.529052
 H         5.168724        -0.959275        -0.641551
 H         5.197486         0.853516        -1.212603
 H         2.248738         2.035407        -1.091915
 H         2.277488         0.772811        -2.307354
 H         0.188117         0.252817        -0.027533
 H         2.024282        -1.696796        -0.876718
 H         1.366455        -0.366488         2.464572
 H         3.208695        -0.414199         2.729954
 H         2.444108         2.631027         0.886902
