19
Iteration:   848charge 0 multiplicity 1
 C         4.812996         0.200969        -0.332238
 C         3.259858         0.179505        -0.338283
 C         2.249003         0.800672        -1.264357
 C         1.334925         0.212797        -0.080811
 C         2.256991        -0.970700        -0.144245
 O         2.542458        -1.621072         1.135545
 C         2.492138        -0.414586         2.052417
 C         2.457112         0.695955         0.940624
 O         2.649308         1.920705         1.535464
 H         5.121551        -0.489472         0.441478
 H         5.193899        -0.354991        -1.247217
 H         5.341262         1.178028        -0.220217
 H         2.105805         1.842882        -1.569708
 H         2.319732         0.262566        -2.280303
 H         0.172131         0.353516        -0.159093
 H         2.065894        -1.681964        -0.864018
 H         1.580198        -0.174975         2.623370
 H         3.378680        -0.392730         2.631296
 H         2.406422         2.552350         0.892003
