19
Iteration:  1178
 C         4.769501         0.214421        -0.359317
 C         3.320538         0.212861        -0.346611
 C         2.240686         0.771109        -1.269136
 C         1.387242         0.262513        -0.113241
 C         2.243715        -1.020316        -0.146763
 O         2.463351        -1.605326         1.167869
 C         2.544032        -0.407275         2.012246
 C         2.469059         0.670682         0.949361
 O         2.610581         1.934356         1.548386
 H         5.041330        -0.077927         0.614426
 H         5.138664        -0.514122        -1.023101
 H         5.179551         1.237801        -0.507087
 H         2.393066         1.794373        -1.495002
 H         2.195284         0.155402        -2.208279
 H         0.280924         0.194646        -0.016170
 H         2.305223        -1.842008        -0.785200
 H         1.711595        -0.450288         2.765962
 H         3.549610        -0.411360         2.603401
 H         2.429103         2.549425         0.850298
