19
Iteration:  2890charge 0 multiplicity 1
 C         4.853124         0.169477        -0.423358
 C         3.291229         0.268486        -0.233486
 C         2.304871         1.153477        -1.005966
 C         1.363866         0.265469        -0.029290
 C         2.312641        -0.895609        -0.287437
 O         2.330491        -1.636993         0.974994
 C         2.621628        -0.700844         2.000338
 C         2.464043         0.519995         1.095977
 O         2.476092         1.924331         1.466397
 H         5.093789         1.153202        -0.878361
 H         5.490419        -0.277666         0.354423
 H         4.868712        -0.399582        -1.318570
 H         2.355125         2.220949        -1.112234
 H         2.352926         0.784044        -2.057900
 H         0.309454         0.282003        -0.091715
 H         2.280727        -1.691276        -1.218699
 H         1.886716        -0.989422         2.827433
 H         3.664500        -0.861459         2.487563
 H         3.346034         2.165900         1.520204
