19
Iteration:  2431charge 0 multiplicity 1
 C         4.801858         0.247663        -0.382099
 C         3.247878         0.206461        -0.207367
 C         2.264774         0.884732        -1.169124
 C         1.376677         0.254335        -0.112703
 C         2.277388        -0.948472        -0.121517
 O         2.425361        -1.659045         1.047665
 C         2.481431        -0.538921         2.014793
 C         2.464271         0.635289         1.007984
 O         2.667172         1.935612         1.457536
 H         5.235992         1.221468        -0.714876
 H         5.254065        -0.066231         0.568178
 H         5.259426        -0.574649        -0.929703
 H         2.319408         1.940299        -1.373803
 H         2.293323         0.408181        -2.136509
 H         0.285865         0.142524         0.108712
 H         2.354423        -1.468045        -1.060399
 H         1.605408        -0.621208         2.660308
 H         3.435347        -0.609505         2.630198
 H         2.606731         2.653899         0.781601
