19
Iteration:  3185
 C         4.756777         0.101759        -0.472303
 C         3.233608         0.341071        -0.216811
 C         2.227174         1.102543        -1.097407
 C         1.345388         0.290270        -0.127275
 C         2.361301        -0.852249        -0.317808
 O         2.475134        -1.697315         0.833857
 C         2.567064        -0.688725         1.929216
 C         2.445062         0.694993         1.095102
 O         2.660552         1.832867         1.792273
 H         5.316457         0.627611         0.332188
 H         4.960109        -0.998066        -0.516372
 H         5.042242         0.597312        -1.432378
 H         2.150159         2.169964        -1.134485
 H         2.204957         0.634186        -2.139286
 H         0.322125         0.282016        -0.128583
 H         2.231352        -1.430544        -1.275439
 H         1.784649        -0.783239         2.730662
 H         3.583169        -0.705464         2.419086
 H         2.106470         1.909293         2.585897
