19
Iteration:  4083
 C         4.813547         0.298120        -0.345986
 C         3.298417         0.256520        -0.241595
 C         2.355229         1.115083        -1.076816
 C         1.340825         0.427723        -0.077773
 C         2.314661        -0.852429        -0.326277
 O         2.377996        -1.677288         0.767450
 C         2.474170        -0.772902         1.810315
 C         2.420689         0.558558         1.030244
 O         2.667144         1.697133         1.886865
 H         5.185670        -0.557403        -0.939465
 H         5.185631         1.198209        -0.783788
 H         5.199724         0.134012         0.674680
 H         2.505257         2.169722        -0.785447
 H         2.236075         0.934923        -2.168238
 H         0.301400         0.820689         0.063584
 H         2.236920        -1.426462        -1.258264
 H         1.740933        -1.017340         2.605802
 H         3.438286        -1.019800         2.193446
 H         2.141908         2.414477         1.637092
