19
Iteration:  3993charge 0 multiplicity 1
 C         4.836338         0.256568        -0.393472
 C         3.349249         0.279823        -0.276609
 C         2.326275         1.258365        -0.951178
 C         1.422149         0.357505        -0.071894
 C         2.275121        -0.866567        -0.391639
 O         2.331026        -1.757151         0.836162
 C         2.516606        -0.743071         1.870038
 C         2.534659         0.522668         1.068744
 O         2.505015         1.728159         1.758361
 H         5.351846         0.503866        -1.283490
 H         5.329715         0.981052         0.309005
 H         5.069389        -0.819383        -0.147553
 H         2.574227         2.329009        -0.633168
 H         2.060363         1.084323        -1.982919
 H         0.254849         0.402190        -0.012039
 H         2.095190        -1.418384        -1.294669
 H         1.788886        -0.588745         2.682418
 H         3.458084        -0.844787         2.449116
 H         2.614440         2.384583         1.126136
