19
Iteration:  1052
 C         4.881724         0.185595        -0.358875
 C         3.296284         0.141723        -0.276622
 C         2.221185         0.824169        -1.308776
 C         1.393496         0.154487        -0.085233
 C         2.313106        -1.025367        -0.098256
 O         2.447267        -1.613682         1.184924
 C         2.483037        -0.373518         1.963457
 C         2.438326         0.756370         0.917041
 O         2.583499         1.947709         1.538458
 H         5.093425        -0.815563         0.045747
 H         5.225360         0.129359        -1.418667
 H         5.354543         0.995576         0.116472
 H         2.202005         1.958743        -1.355531
 H         2.026888         0.513454        -2.314359
 H         0.372510         0.225664         0.102048
 H         2.232196        -1.720421        -0.911078
 H         1.734378        -0.630198         2.744838
 H         3.496958        -0.283508         2.398075
 H         2.547084         2.666550         0.966412
