19
Iteration:  4351charge 0 multiplicity 1
 C         4.881074         0.163758        -0.566055
 C         3.402913         0.294452        -0.282306
 C         2.298012         1.315438        -0.916200
 C         1.526920         0.332553        -0.149784
 C         2.333141        -0.891225        -0.368331
 O         2.338946        -1.707082         0.874787
 C         2.473747        -0.687637         1.897998
 C         2.405195         0.564949         1.072689
 O         2.461690         1.663114         1.877917
 H         4.947719        -0.600456        -1.278621
 H         5.348002         1.148425        -0.779096
 H         5.234974        -0.183837         0.433809
 H         2.139992         2.350892        -0.598935
 H         2.150454         1.359990        -2.000530
 H         0.452801         0.485244        -0.123380
 H         2.263133        -1.437016        -1.300294
 H         1.745622        -0.685187         2.696206
 H         3.477419        -0.959717         2.249520
 H         2.676671         2.451414         1.381114
