19
Iteration:  2826charge 0 multiplicity 1
 C         4.805660         0.085817        -0.410807
 C         3.286836         0.259142        -0.325121
 C         2.207351         0.952890        -1.189268
 C         1.353160         0.400900        -0.024136
 C         2.306970        -0.942615        -0.243447
 O         2.555093        -1.649603         0.963844
 C         2.494815        -0.589036         1.919637
 C         2.417591         0.722338         1.006059
 O         2.566531         1.899909         1.717686
 H         5.408953         0.447497         0.423984
 H         5.212913        -0.887985        -0.517049
 H         5.095473         0.572090        -1.299713
 H         2.255208         1.965564        -1.384293
 H         2.031709         0.353937        -2.105394
 H         0.302791         0.381068        -0.112003
 H         2.205751        -1.627312        -1.182186
 H         1.619800        -0.839645         2.513388
 H         3.362248        -0.452240         2.483364
 H         3.192588         1.762844         2.454346
