19
Iteration:  2310
 C         4.844593         0.143084        -0.448356
 C         3.278340         0.202251        -0.287802
 C         2.257467         0.936338        -1.274906
 C         1.364829         0.250237        -0.144023
 C         2.323303        -1.007038        -0.177448
 O         2.497319        -1.636349         1.222875
 C         2.461413        -0.431215         1.954549
 C         2.436272         0.671499         0.997214
 O         2.587398         1.893513         1.596558
 H         5.330538         0.267583         0.535205
 H         5.114104        -0.873628        -0.846902
 H         5.368801         0.775632        -1.115398
 H         2.153981         2.037932        -1.213238
 H         2.028997         0.432712        -2.395834
 H         0.319220         0.357477         0.130850
 H         2.459578        -1.868525        -0.832057
 H         1.597363        -0.387481         2.580975
 H         3.272078        -0.275814         2.714299
 H         2.510491         2.582004         0.882304
