19
Iteration:  1151charge 0 multiplicity 1
 C         4.868423         0.173533        -0.381970
 C         3.367957         0.174786        -0.275657
 C         2.252665         0.819990        -1.241339
 C         1.364000         0.261353        -0.105692
 C         2.268380        -1.019049        -0.119011
 O         2.334465        -1.650945         1.181386
 C         2.674628        -0.439253         1.971564
 C         2.430145         0.700371         0.932826
 O         2.483317         1.994486         1.520115
 H         5.401317         0.049167         0.639940
 H         5.114980        -0.707110        -1.070898
 H         5.053938         1.159448        -0.834266
 H         2.477545         1.994155        -1.092929
 H         2.187149         0.386081        -2.250469
 H         0.281271         0.189089         0.000925
 H         2.464381        -1.876843        -0.871532
 H         2.013107        -0.390528         2.850435
 H         3.767602        -0.546504         2.260549
 H         2.533054         2.533126         0.756056
