19
Iteration:  1362charge 0 multiplicity 1
 C         4.819941         0.228802        -0.434021
 C         3.325408         0.141342        -0.241948
 C         2.268833         0.892659        -1.216203
 C         1.408568         0.203770        -0.144276
 C         2.384850        -1.081444        -0.147756
 O         2.353309        -1.624032         1.200268
 C         2.513598        -0.412586         2.059039
 C         2.450726         0.659360         0.930021
 O         2.579251         1.968953         1.474961
 H         5.270143        -0.010024         0.564955
 H         5.205755        -0.584468        -1.091016
 H         5.241722         1.289430        -0.711034
 H         2.134184         2.054852        -1.315710
 H         2.082458         0.531902        -2.180909
 H         0.293891         0.090072         0.016156
 H         2.262522        -1.768825        -0.935998
 H         1.736955        -0.366780         2.807632
 H         3.464300        -0.603396         2.566362
 H         2.427214         2.610012         0.796796
