19
Iteration:  1871
 C         4.926863         0.260534        -0.366569
 C         3.392326         0.140403        -0.326664
 C         2.240951         0.860411        -1.183328
 C         1.360273         0.256060        -0.073334
 C         2.192028        -1.079605        -0.114174
 O         2.361411        -1.624586         1.179105
 C         2.601463        -0.434036         2.000528
 C         2.503015         0.656717         0.936008
 O         2.542769         1.926241         1.461804
 H         5.444733        -0.415972         0.253129
 H         5.239944         0.024510        -1.396489
 H         5.186426         1.224740        -0.137448
 H         2.209721         1.973271        -1.299394
 H         2.294809         0.518941        -2.179947
 H         0.312479         0.346649        -0.180299
 H         1.908692        -1.945944        -0.850313
 H         1.732861        -0.194968         2.585056
 H         3.439364        -0.528635         2.673114
 H         2.264426         2.586379         0.788956
