19
Iteration:  2131
 C         4.833678         0.148218        -0.450418
 C         3.322197         0.148035        -0.170832
 C         2.339115         0.856563        -1.144571
 C         1.363306         0.218936        -0.077837
 C         2.320512        -1.025953        -0.129219
 O         2.311432        -1.616036         1.115083
 C         2.672116        -0.440333         1.990688
 C         2.453766         0.679691         0.958313
 O         2.473181         2.027678         1.444039
 H         5.302543        -0.722564        -0.026704
 H         5.078976         0.168732        -1.484543
 H         5.346818         1.041239        -0.011881
 H         2.512321         2.007865        -1.089693
 H         2.260376         0.257003        -2.112396
 H         0.321657         0.310743         0.143148
 H         2.183998        -1.793137        -0.923761
 H         1.911787        -0.473220         2.737617
 H         3.663514        -0.647420         2.489794
 H         2.303518         2.591461         0.597834
