19
Iteration:  2647charge 0 multiplicity 1
 C         4.759489         0.183475        -0.503950
 C         3.356005         0.241443        -0.268304
 C         2.318120         0.992554        -1.116561
 C         1.423400         0.285554        -0.109750
 C         2.360502        -0.966924        -0.220919
 O         2.288225        -1.624354         1.108700
 C         2.656043        -0.589654         1.988804
 C         2.505754         0.651267         1.001834
 O         2.396744         1.878562         1.550719
 H         5.153348        -0.738976        -0.903748
 H         5.099211         0.954530        -1.194359
 H         5.325534         0.199020         0.406404
 H         2.453944         2.099849        -0.860338
 H         2.333676         0.668090        -2.137815
 H         0.331534         0.231013         0.120426
 H         2.030924        -1.724333        -1.192587
 H         1.860059        -0.589538         2.751457
 H         3.646199        -0.631395         2.411162
 H         3.343560         2.238582         1.769220
