19
Iteration:  3644
 C         4.779292         0.250797        -0.327047
 C         3.311730         0.270404        -0.223222
 C         2.352516         1.131852        -1.055021
 C         1.398628         0.360527        -0.038476
 C         2.251819        -0.884720        -0.383535
 O         2.313145        -1.679305         0.786430
 C         2.540565        -0.791820         1.837641
 C         2.491730         0.555301         1.066174
 O         2.633131         1.810439         1.814956
 H         5.119395         0.351425        -1.361567
 H         5.382439         1.060937         0.096455
 H         5.174678        -0.709350         0.050005
 H         2.370919         2.142384        -1.164230
 H         2.325802         0.773463        -2.108739
 H         0.329724         0.409995         0.263019
 H         2.112402        -1.290329        -1.329783
 H         1.838012        -0.861615         2.706122
 H         3.538318        -0.972944         2.306453
 H         2.253621         2.628921         1.377740
