19
Iteration:  1491
 C         4.849377         0.160162        -0.318467
 C         3.310626         0.207010        -0.321821
 C         2.259179         0.800686        -1.201864
 C         1.373436         0.281313        -0.102914
 C         2.308412        -1.022862        -0.118911
 O         2.407300        -1.603104         1.199369
 C         2.581062        -0.371622         1.983072
 C         2.513326         0.683732         0.869974
 O         2.510595         1.890529         1.499928
 H         5.232532        -0.762669         0.016556
 H         5.013394         0.228700        -1.381328
 H         5.312236         0.996339         0.086096
 H         2.556109         1.797187        -1.370192
 H         2.094647         0.165834        -2.211715
 H         0.218427         0.310955        -0.015112
 H         2.127707        -1.764722        -0.827910
 H         1.681277        -0.387816         2.665576
 H         3.559380        -0.305361         2.553111
 H         2.276250         2.607706         0.808230
