19
Iteration:   879charge 0 multiplicity 1
 C         4.796643         0.149693        -0.403655
 C         3.325767         0.121874        -0.370024
 C         2.253102         0.860763        -1.164034
 C         1.384164         0.243389        -0.101883
 C         2.381514        -1.006431        -0.149811
 O         2.352220        -1.632922         1.152376
 C         2.644081        -0.422362         2.027282
 C         2.461798         0.669230         1.002074
 O         2.499201         1.991998         1.499592
 H         5.108983        -0.141054         0.591270
 H         5.044263        -0.704424        -1.147080
 H         5.226461         1.113407        -0.593766
 H         2.428503         2.015488        -1.208236
 H         2.244886         0.506815        -2.128953
 H         0.355552         0.486615        -0.252761
 H         2.263724        -1.837741        -0.755653
 H         1.925142        -0.516534         2.868650
 H         3.718518        -0.398218         2.307041
 H         2.195631         2.681354         0.787772
