19
Iteration:   987charge 0 multiplicity 1
 C         4.818624         0.198883        -0.376977
 C         3.354807         0.163376        -0.271973
 C         2.204341         0.816435        -1.218920
 C         1.391848         0.192711        -0.159610
 C         2.243196        -1.062133        -0.140401
 O         2.444828        -1.594207         1.149846
 C         2.526922        -0.444259         2.057987
 C         2.480752         0.671391         0.958066
 O         2.591039         2.010184         1.478269
 H         5.084073        -0.705443         0.163635
 H         5.407090         0.124082        -1.298011
 H         5.228526         1.016842         0.147050
 H         2.193411         1.959660        -1.230375
 H         1.992582         0.566340        -2.202670
 H         0.406664         0.312831        -0.078063
 H         2.251714        -1.877990        -0.829901
 H         1.725108        -0.276494         2.813878
 H         3.581354        -0.556364         2.479584
 H         2.413284         2.689366         0.783809
