19
Iteration:  3430
 C         4.806863         0.280577        -0.389237
 C         3.323568         0.375997        -0.205685
 C         2.305198         1.161105        -1.027345
 C         1.344897         0.357389        -0.081278
 C         2.249337        -0.863364        -0.349032
 O         2.380767        -1.709272         0.778994
 C         2.468768        -0.768128         1.878021
 C         2.495825         0.528867         1.076807
 O         2.666339         1.724269         1.810563
 H         5.106444        -0.514171        -1.090630
 H         5.114172         1.146433        -0.891335
 H         5.249412         0.172240         0.624534
 H         2.237059         2.255502        -0.801679
 H         2.216570         0.890771        -2.062947
 H         0.267828         0.275587         0.185712
 H         2.324192        -1.327008        -1.274633
 H         1.680562        -1.008357         2.571526
 H         3.410295        -1.112015         2.328879
 H         2.809110         2.451268         1.127147
