19
Iteration:  2181charge 0 multiplicity 1
 C         4.820395         0.029523        -0.405554
 C         3.320034         0.153976        -0.324879
 C         2.244645         0.771674        -1.224742
 C         1.426912         0.283606        -0.084413
 C         2.289258        -1.003811        -0.162139
 O         2.540094        -1.535032         1.150827
 C         2.453953        -0.349838         1.931963
 C         2.503643         0.703883         0.939516
 O         2.488502         1.967602         1.636963
 H         5.210768        -1.041286        -0.344156
 H         5.172146         0.380716        -1.438254
 H         5.389140         0.628957         0.335430
 H         2.025441         1.837288        -1.212426
 H         2.136758         0.300994        -2.169317
 H         0.253383         0.164843        -0.022484
 H         2.400777        -1.792194        -0.853820
 H         1.464324        -0.333300         2.589949
 H         3.361176        -0.369169         2.552546
 H         2.528334         2.585702         0.902962
