19
Iteration:  1044
 C         4.857045         0.167964        -0.360436
 C         3.367853         0.163638        -0.269638
 C         2.212296         0.859536        -1.293920
 C         1.344791         0.173769        -0.139837
 C         2.276027        -1.031561        -0.112509
 O         2.421349        -1.630243         1.177378
 C         2.552698        -0.438519         2.000138
 C         2.442610         0.712601         0.908288
 O         2.562761         1.993805         1.515932
 H         5.349270        -0.639980         0.159297
 H         5.140608         0.293895        -1.437049
 H         5.241808         0.940709         0.357868
 H         2.349657         1.985819        -1.197801
 H         2.076661         0.420247        -2.268510
 H         0.305134         0.048281         0.129262
 H         2.146075        -1.857916        -0.859428
 H         1.904857        -0.077329         2.892126
 H         3.622886        -0.492973         2.502494
 H         2.577206         2.617772         0.819108
