19
Iteration:   171
 C         4.885913         0.133386        -0.437314
 C         3.346957         0.213335        -0.317829
 C         2.264830         0.803289        -1.247849
 C         1.413656         0.228075        -0.113767
 C         2.232017        -1.042931        -0.106799
 O         2.370444        -1.591938         1.241245
 C         2.564198        -0.400922         2.027284
 C         2.490886         0.664745         0.958605
 O         2.496984         2.009481         1.404832
 H         5.441099        -0.679265         0.137394
 H         5.236330        -0.001746        -1.520882
 H         5.157419         1.216362        -0.132098
 H         2.152684         1.902863        -1.620839
 H         2.264209         0.167501        -2.180322
 H         0.325144         0.329566         0.021304
 H         2.021476        -1.796569        -0.858258
 H         1.877712        -0.283458         2.922915
 H         3.636867        -0.322778         2.411174
 H         2.723909         1.949886         2.306317
