19
Iteration:  2010
 C         4.898633         0.070309        -0.531640
 C         3.410381         0.137468        -0.261040
 C         2.288255         0.954972        -1.104027
 C         1.401381         0.245885        -0.200474
 C         2.259784        -0.965599        -0.139821
 O         2.368324        -1.619554         1.214689
 C         2.601089        -0.483489         2.058162
 C         2.401516         0.672359         0.976925
 O         2.442174         1.968878         1.467942
 H         5.381633        -0.203014         0.451017
 H         5.300382        -0.523914        -1.355794
 H         5.246277         1.154446        -0.748724
 H         2.477895         2.047933        -1.093558
 H         2.076678         0.770860        -2.228707
 H         0.346525         0.076755        -0.013598
 H         2.297245        -1.825620        -0.741695
 H         1.921486        -0.421609         2.920638
 H         3.651662        -0.523259         2.474819
 H         2.295005         2.620274         0.816031
