19
Iteration:   874
 C         4.772961         0.154477        -0.392323
 C         3.274374         0.117334        -0.313139
 C         2.281293         0.838908        -1.182904
 C         1.415541         0.299581        -0.101268
 C         2.384655        -1.051724        -0.115201
 O         2.396694        -1.603144         1.138834
 C         2.637616        -0.458908         2.002911
 C         2.413624         0.702230         0.970384
 O         2.528076         1.985805         1.505844
 H         5.159245        -0.223310         0.600762
 H         5.075846        -0.589227        -1.086791
 H         5.253185         1.147445        -0.562631
 H         2.267037         1.924517        -1.282341
 H         2.034209         0.521698        -2.292644
 H         0.288349         0.425279        -0.182355
 H         2.266251        -1.894529        -0.924382
 H         1.862092        -0.305686         2.782835
 H         3.706420        -0.585582         2.327993
 H         2.233165         2.580638         0.863811
