19
Iteration:   553
 C         4.818217         0.043174        -0.331213
 C         3.298111         0.183245        -0.313622
 C         2.294114         0.899784        -1.204686
 C         1.374903         0.180175        -0.105366
 C         2.306078        -0.918627        -0.161970
 O         2.496910        -1.594118         1.195185
 C         2.571902        -0.427941         2.025349
 C         2.436328         0.650065         0.944694
 O         2.481612         1.982870         1.425471
 H         5.158392        -0.831452         0.202472
 H         5.203542         0.026635        -1.385135
 H         5.264915         0.887978         0.166694
 H         2.319760         1.980397        -1.177876
 H         2.293469         0.503328        -2.318588
 H         0.232465         0.111247         0.140299
 H         2.118977        -1.680527        -0.914056
 H         1.700488        -0.350752         2.732820
 H         3.524505        -0.476407         2.587884
 H         2.434268         2.639044         0.773068
