19
Iteration:  3425charge 0 multiplicity 1
 C         4.803588         0.278776        -0.387206
 C         3.332320         0.374999        -0.223136
 C         2.288205         1.158565        -1.077925
 C         1.358206         0.381102        -0.032791
 C         2.270147        -0.875629        -0.344623
 O         2.371252        -1.714255         0.751469
 C         2.496215        -0.796624         1.902596
 C         2.475770         0.555842         1.105655
 O         2.638857         1.717101         1.821181
 H         5.138409        -0.559269        -1.016284
 H         5.130646         1.270544        -0.891039
 H         5.356867         0.191912         0.560179
 H         2.272841         2.229635        -0.918791
 H         2.266946         0.754892        -2.146208
 H         0.276488         0.467685         0.161667
 H         2.204198        -1.446102        -1.362780
 H         1.558727        -0.887501         2.538663
 H         3.478642        -1.025244         2.347875
 H         2.961714         2.371902         1.231239
