19
Iteration:   486
 C         4.875724         0.186840        -0.427240
 C         3.319964         0.142147        -0.264750
 C         2.293122         0.818643        -1.286352
 C         1.360407         0.288606        -0.127197
 C         2.366971        -1.032068        -0.094421
 O         2.374373        -1.637889         1.216496
 C         2.462786        -0.486189         2.032170
 C         2.456651         0.706053         0.905129
 O         2.590034         1.988235         1.512040
 H         5.442176        -0.239821         0.428046
 H         5.082682        -0.234208        -1.449380
 H         5.101964         1.197513        -0.458521
 H         2.352238         1.837235        -1.074603
 H         2.155248         0.432180        -2.419828
 H         0.217437         0.117779         0.118924
 H         2.443970        -1.851353        -0.905144
 H         1.530168        -0.325697         2.645506
 H         3.339476        -0.470251         2.708892
 H         2.380803         2.787054         0.881704
