19
Iteration:   905
 C         4.894907         0.110083        -0.470965
 C         3.356549         0.155710        -0.220521
 C         2.276669         0.957585        -1.185960
 C         1.431487         0.232217        -0.044568
 C         2.326940        -1.011263        -0.094123
 O         2.362767        -1.577336         1.167352
 C         2.619832        -0.449970         1.959341
 C         2.469544         0.642779         0.958950
 O         2.418662         1.923159         1.456935
 H         5.464973        -0.103084         0.450791
 H         4.829978        -0.720686        -1.127502
 H         5.298936         1.084837        -0.910958
 H         2.169791         2.000259        -1.057197
 H         2.218796         0.544331        -2.310596
 H         0.228164         0.487575        -0.087132
 H         2.185586        -1.958349        -0.692508
 H         1.811958        -0.249132         2.678136
 H         3.555003        -0.633662         2.429029
 H         2.323996         2.713916         0.794398
