19
Iteration:  3453
 C         4.801348         0.214808        -0.348603
 C         3.312992         0.317831        -0.297490
 C         2.234606         1.325591        -0.919054
 C         1.357209         0.329426        -0.110584
 C         2.370154        -0.987087        -0.424434
 O         2.371996        -1.725476         0.824959
 C         2.495083        -0.670393         1.911816
 C         2.422016         0.513077         1.060998
 O         2.739387         1.730549         1.719506
 H         5.185636        -0.359435        -1.216631
 H         5.033545         1.213113        -0.706759
 H         5.196941        -0.055932         0.627555
 H         2.297189         2.268167        -0.314512
 H         2.182974         1.412075        -1.955497
 H         0.251530         0.340808        -0.073732
 H         2.211934        -1.613767        -1.290828
 H         1.615268        -0.844676         2.539362
 H         3.406054        -1.022433         2.457726
 H         2.026762         2.397686         1.718417
