19
Iteration:  2408charge 0 multiplicity 1
 C         4.841949         0.226421        -0.331543
 C         3.269720         0.195734        -0.378638
 C         2.244067         0.859357        -1.290892
 C         1.446217         0.267584        -0.139206
 C         2.251255        -1.044902        -0.141697
 O         2.347757        -1.606405         1.178948
 C         2.594641        -0.445704         1.908948
 C         2.469300         0.624805         0.945322
 O         2.595349         1.873241         1.655541
 H         5.099933         1.290425        -0.198507
 H         5.243573        -0.382225         0.521847
 H         5.410625        -0.193547        -1.140207
 H         2.371663         1.938500        -1.124461
 H         1.998587         0.688453        -2.283298
 H         0.370222         0.301469        -0.095110
 H         2.146251        -1.775143        -0.971911
 H         1.832672        -0.297368         2.683557
 H         3.635593        -0.316220         2.372317
 H         2.495322         2.615491         0.996248
