19
Iteration:  3407charge 0 multiplicity 1
 C         4.850478         0.321619        -0.408987
 C         3.324881         0.261186        -0.325383
 C         2.266965         1.087609        -1.155488
 C         1.441991         0.529866        -0.032953
 C         2.253361        -0.858345        -0.332444
 O         2.371272        -1.769128         0.807167
 C         2.523232        -0.747640         1.812864
 C         2.502436         0.558935         1.072194
 O         2.522395         1.744401         1.958733
 H         5.207016        -0.512130        -1.030703
 H         5.162618         1.142862        -0.948189
 H         5.168867         0.228662         0.668693
 H         2.451972         2.183380        -1.226308
 H         1.879059         0.561287        -2.026101
 H         0.329418         0.453995         0.169660
 H         2.019266        -1.265440        -1.266502
 H         1.739092        -0.994240         2.502398
 H         3.470770        -0.947363         2.350536
 H         3.410684         2.047126         1.970435
