19
Iteration:  3335
 C         4.793351         0.210920        -0.418766
 C         3.278906         0.281107        -0.240269
 C         2.261743         1.215841        -0.948658
 C         1.418718         0.331849         0.092050
 C         2.231110        -0.824549        -0.397765
 O         2.487670        -1.765809         0.771887
 C         2.488892        -0.798753         1.876536
 C         2.543916         0.552031         1.091397
 O         2.606584         1.842493         1.699578
 H         5.025117         0.094272        -1.475689
 H         5.168307         1.297061        -0.168877
 H         5.140600        -0.542486         0.206624
 H         2.430053         2.278361        -0.668082
 H         2.084334         1.002350        -1.963036
 H         0.346715         0.395362         0.065682
 H         2.041606        -1.519349        -1.238645
 H         1.619995        -0.804093         2.564158
 H         3.434261        -1.041498         2.370048
 H         2.111945         2.330331         1.084395
