19
Iteration:  2385
 C         4.831713         0.128449        -0.350171
 C         3.286733         0.204916        -0.321701
 C         2.303373         0.845325        -1.250465
 C         1.363736         0.269205        -0.109853
 C         2.321650        -1.020626        -0.211275
 O         2.326070        -1.560683         1.127852
 C         2.664550        -0.446401         1.980206
 C         2.482306         0.646951         0.944193
 O         2.501668         1.914644         1.649280
 H         5.098091         1.059762         0.137893
 H         5.433129        -0.758197        -0.023812
 H         5.127009         0.231680        -1.374081
 H         2.304218         1.947141        -1.426066
 H         2.245267         0.371145        -2.198056
 H         0.321057         0.312345        -0.046532
 H         2.089755        -1.889729        -0.941970
 H         1.976830        -0.306783         2.835755
 H         3.766036        -0.478847         2.340408
 H         2.442878         2.659414         1.072819
