19
Iteration:  1551charge 0 multiplicity 1
 C         4.789632         0.200820        -0.376596
 C         3.343822         0.198380        -0.315117
 C         2.283946         0.868594        -1.228327
 C         1.424410         0.250828        -0.070947
 C         2.337623        -1.028480        -0.131944
 O         2.417377        -1.614625         1.225891
 C         2.477973        -0.472350         2.027410
 C         2.435926         0.645056         0.933483
 O         2.545058         1.944306         1.423430
 H         5.393984        -0.290944         0.446233
 H         5.004793        -0.350192        -1.324707
 H         5.219220         1.264756        -0.455743
 H         2.394350         1.994807        -1.291010
 H         2.237945         0.541575        -2.175931
 H         0.354019         0.341094         0.203320
 H         2.193483        -1.799104        -0.964974
 H         1.633028        -0.618876         2.686651
 H         3.379043        -0.494250         2.716519
 H         2.771579         2.527036         0.693651
