19
Iteration:  2880
 C         4.846304         0.121214        -0.464747
 C         3.310738         0.247888        -0.195957
 C         2.284090         1.138387        -1.009439
 C         1.360156         0.252452        -0.078031
 C         2.287456        -0.944600        -0.241890
 O         2.363001        -1.672357         0.940318
 C         2.614317        -0.654195         1.961081
 C         2.430948         0.622405         1.085624
 O         2.481106         1.939172         1.496155
 H         5.328914         1.125342        -0.374488
 H         5.240062        -0.485755         0.323556
 H         5.104486        -0.319897        -1.388268
 H         2.303609         2.178647        -0.826319
 H         2.231359         0.918994        -2.102310
 H         0.313870         0.117203         0.017781
 H         2.360604        -1.557842        -1.200244
 H         2.044396        -0.854332         2.890106
 H         3.687241        -0.605242         2.199292
 H         3.360462         2.158386         1.767705
