19
Iteration:   762
 C         4.847208         0.191006        -0.430033
 C         3.349790         0.181429        -0.292478
 C         2.315456         0.835479        -1.195701
 C         1.427007         0.183092        -0.094129
 C         2.251403        -1.062654        -0.084373
 O         2.334918        -1.636906         1.167873
 C         2.622597        -0.384648         1.954054
 C         2.507863         0.658398         0.953069
 O         2.455179         1.992784         1.522949
 H         5.135249        -0.741760         0.013332
 H         5.132461         0.156185        -1.465418
 H         5.424004         0.927109         0.181349
 H         2.378251         1.874413        -1.314756
 H         2.297597         0.316042        -2.289955
 H         0.303145         0.463852        -0.039511
 H         2.180032        -1.693953        -0.907476
 H         1.930570        -0.279535         2.801786
 H         3.684730        -0.359822         2.315403
 H         2.134244         2.761425         0.908796
