19
Iteration:  3123
 C         4.741420         0.258217        -0.438349
 C         3.300548         0.357769        -0.183322
 C         2.291173         1.126576        -1.006121
 C         1.420758         0.287310        -0.085653
 C         2.263390        -0.929995        -0.319276
 O         2.329638        -1.765281         0.892467
 C         2.629163        -0.733814         1.931263
 C         2.516036         0.605639         1.106421
 O         2.532522         1.880918         1.624544
 H         5.364780         0.019339         0.405459
 H         4.928728        -0.591044        -1.075192
 H         5.192889         1.226018        -0.785708
 H         2.282453         2.191317        -0.957865
 H         2.303681         0.920308        -2.075652
 H         0.247858         0.377883         0.040621
 H         2.096136        -1.568567        -1.174712
 H         1.844464        -0.931508         2.631253
 H         3.644515        -1.008396         2.176387
 H         3.443564         2.197843         1.459620
