19
Iteration:  3786
 C         4.809114         0.268429        -0.331721
 C         3.231647         0.267162        -0.212372
 C         2.447471         1.253964        -0.947693
 C         1.328173         0.362939        -0.031825
 C         2.244427        -0.883689        -0.503050
 O         2.362484        -1.747965         0.815328
 C         2.533861        -0.727335         1.841556
 C         2.403037         0.515843         1.093839
 O         2.685402         1.736745         1.715846
 H         5.258932        -0.545692        -0.838055
 H         5.320203         1.156944        -0.830708
 H         5.272424         0.387735         0.713639
 H         2.618799         2.297322        -0.640360
 H         2.389409         0.978504        -2.086140
 H         0.224702         0.529360         0.237221
 H         2.065784        -1.528031        -1.315644
 H         1.738125        -0.826414         2.627708
 H         3.449258        -1.018576         2.361806
 H         2.026605         2.395540         1.336599
