19
Iteration:  2225
 C         4.793305         0.151669        -0.350628
 C         3.285076         0.155253        -0.209582
 C         2.240221         0.900671        -1.147131
 C         1.392998         0.187442        -0.136367
 C         2.346703        -1.031159        -0.145244
 O         2.455297        -1.622333         1.127787
 C         2.518872        -0.421084         2.010879
 C         2.425560         0.668598         1.001525
 O         2.636184         1.959248         1.378842
 H         5.303528        -0.840754        -0.063774
 H         4.996197         0.400224        -1.423718
 H         5.196266         1.033217         0.231518
 H         2.287851         1.969571        -1.104398
 H         2.165953         0.557280        -2.165252
 H         0.227550         0.345001        -0.026409
 H         2.081557        -1.707800        -0.892893
 H         1.543383        -0.422417         2.621490
 H         3.407338        -0.351352         2.646783
 H         2.402984         2.631331         0.765332
