19
Iteration:  2262
 C         4.859306         0.256179        -0.337355
 C         3.349453         0.211104        -0.308791
 C         2.209342         0.853293        -1.261987
 C         1.445602         0.291178        -0.139674
 C         2.268767        -1.058329        -0.082625
 O         2.280904        -1.667900         1.203527
 C         2.622053        -0.458505         2.004181
 C         2.480305         0.666653         0.889514
 O         2.545602         1.898853         1.511344
 H         5.431761        -0.160741         0.473160
 H         5.194775        -0.084670        -1.303327
 H         5.178906         1.337420        -0.350417
 H         2.455851         1.987871        -1.376632
 H         2.082594         0.325674        -2.196305
 H         0.360385         0.403893        -0.113373
 H         2.011609        -1.858294        -0.900610
 H         2.026473        -0.452153         2.966472
 H         3.687748        -0.601796         2.359234
 H         2.622895         2.609464         0.825415
