19
Iteration:  3417
 C         4.827177         0.313955        -0.399933
 C         3.275979         0.299959        -0.257225
 C         2.253634         1.136466        -1.121431
 C         1.436900         0.426108         0.027078
 C         2.307006        -0.852921        -0.354300
 O         2.354796        -1.747719         0.739100
 C         2.537361        -0.817881         1.878891
 C         2.452497         0.574775         1.098806
 O         2.581708         1.722428         1.878317
 H         5.125084        -0.583029        -0.951878
 H         5.235049         1.178446        -0.818152
 H         5.473613         0.242775         0.548457
 H         2.364272         2.214886        -1.334358
 H         2.196156         0.759225        -2.189549
 H         0.355273         0.714366        -0.003720
 H         1.981045        -1.461032        -1.151790
 H         1.665111        -0.758929         2.540175
 H         3.386720        -0.817244         2.543263
 H         3.243842         2.284744         1.453725
