19
Iteration:   916
 C         4.803402         0.097487        -0.472429
 C         3.360230         0.214574        -0.277878
 C         2.275683         0.869481        -1.115727
 C         1.421363         0.283368        -0.119044
 C         2.359142        -1.039870        -0.121757
 O         2.394812        -1.624602         1.172099
 C         2.539894        -0.415672         2.021463
 C         2.515884         0.680056         0.949750
 O         2.431924         1.939700         1.506503
 H         5.431422        -0.217921         0.379823
 H         5.086336        -0.648884        -1.214203
 H         5.228562         0.999891        -1.015603
 H         2.414764         1.927146        -1.230012
 H         2.185121         0.476528        -2.237917
 H         0.236171         0.486004         0.086668
 H         2.300213        -1.713270        -1.032653
 H         1.759093        -0.515173         2.776016
 H         3.475079        -0.284531         2.527139
 H         2.446777         2.520930         0.715170
