19
Iteration:  3715charge 0 multiplicity 1
 C         4.779996         0.189822        -0.388878
 C         3.333807         0.292818        -0.235049
 C         2.282835         1.168680        -1.148971
 C         1.379462         0.485824        -0.115920
 C         2.296535        -0.854796        -0.418562
 O         2.433360        -1.722557         0.831080
 C         2.486619        -0.736686         1.854786
 C         2.424636         0.564052         1.060801
 O         2.580396         1.711771         2.014037
 H         5.132967        -0.643193        -1.117113
 H         5.187855         1.010832        -1.037614
 H         5.478581         0.100582         0.477427
 H         2.374292         2.303833        -1.321040
 H         2.275177         0.793758        -2.163233
 H         0.314128         0.612466         0.023094
 H         2.325196        -1.662128        -1.249221
 H         1.600761        -0.976275         2.470497
 H         3.315843        -0.776328         2.579709
 H         3.066135         2.431852         1.501314
