19
Iteration:  3083
 C         4.822070         0.288988        -0.477295
 C         3.288042         0.226810        -0.399652
 C         2.246540         1.081198        -1.070988
 C         1.445485         0.304404        -0.047921
 C         2.278197        -0.962325        -0.301059
 O         2.460608        -1.644663         0.927302
 C         2.404225        -0.641432         1.983080
 C         2.497604         0.575599         1.008674
 O         2.676260         1.761806         1.809283
 H         5.286328        -0.619372        -0.000470
 H         5.252119         0.396546        -1.528256
 H         5.072870         1.202956         0.093028
 H         2.194681         2.273322        -0.940417
 H         2.041378         0.814637        -2.143905
 H         0.318817         0.301672        -0.019538
 H         1.927952        -1.684962        -1.090572
 H         1.380353        -0.573808         2.548528
 H         3.271617        -0.645299         2.692973
 H         2.391185         2.516869         1.242924
