19
Iteration:  4162
 C         4.775676         0.235074        -0.363356
 C         3.285804         0.327687        -0.216566
 C         2.358306         1.144021        -1.138984
 C         1.419625         0.464440        -0.120779
 C         2.274528        -0.859578        -0.317317
 O         2.431961        -1.708387         0.798399
 C         2.491525        -0.748966         1.819911
 C         2.431809         0.568683         1.046100
 O         2.594309         1.705303         1.968761
 H         4.920414        -0.057337        -1.463217
 H         5.476481         1.000707         0.019339
 H         5.100042        -0.667149         0.139882
 H         2.414931         2.240073        -1.230657
 H         2.190825         0.678481        -2.159542
 H         0.333571         0.419144        -0.142313
 H         2.187641        -1.501370        -1.279006
 H         1.613039        -0.952080         2.417797
 H         3.385974        -0.825769         2.417724
 H         2.613230         2.480476         1.480099
