19
Iteration:  4019charge 0 multiplicity 1
 C         4.749042         0.204653        -0.446587
 C         3.330182         0.271679        -0.125797
 C         2.455148         1.228220        -1.002452
 C         1.395133         0.379100        -0.126095
 C         2.312649        -0.838420        -0.374995
 O         2.454899        -1.709618         0.791044
 C         2.461703        -0.828727         1.881758
 C         2.346096         0.556012         1.125171
 O         2.528811         1.779038         1.824813
 H         4.747699        -0.036778        -1.565033
 H         5.326059         1.100163        -0.463417
 H         5.267787        -0.653293        -0.021402
 H         2.444433         2.239028        -0.696576
 H         2.361937         1.100343        -2.102774
 H         0.331014         0.398694        -0.054186
 H         2.172499        -1.377838        -1.360633
 H         1.816543        -0.891313         2.757302
 H         3.446710        -0.691007         2.279101
 H         2.845956         2.369096         1.184151
