19
Iteration:    79
 C         4.776287         0.112575        -0.412371
 C         3.286152         0.255494        -0.327570
 C         2.229078         0.850279        -1.274940
 C         1.354470         0.198843        -0.139594
 C         2.357604        -0.997963        -0.065225
 O         2.525225        -1.642907         1.216097
 C         2.406590        -0.448518         2.045131
 C         2.511734         0.695614         0.927432
 O         2.548338         2.054175         1.441282
 H         5.145446        -0.598081         0.438511
 H         5.053124        -0.507537        -1.247307
 H         5.416967         0.932749        -0.459376
 H         2.327289         1.880562        -1.339215
 H         2.045226         0.385515        -2.278384
 H         0.274352         0.127250         0.019288
 H         2.280339        -1.832456        -0.772564
 H         1.507281        -0.423849         2.660960
 H         3.311005        -0.492074         2.644367
 H         3.499069         2.307351         1.753849
