19
Iteration:   591charge 0 multiplicity 1
 C         4.780032         0.115582        -0.358071
 C         3.307735         0.171618        -0.327989
 C         2.253995         0.893276        -1.262258
 C         1.345420         0.167893        -0.091551
 C         2.331494        -0.999824        -0.104715
 O         2.544057        -1.681719         1.205892
 C         2.428245        -0.508495         2.054974
 C         2.458621         0.767019         0.931081
 O         2.616133         2.039630         1.440447
 H         5.171145        -0.716167         0.297518
 H         5.248916        -0.080053        -1.312817
 H         5.148618         1.136319        -0.020301
 H         2.448428         2.103362        -1.240855
 H         2.184420         0.702949        -2.293368
 H         0.327065         0.090069        -0.007302
 H         2.136023        -1.642479        -1.004919
 H         1.514896        -0.658945         2.621877
 H         3.242861        -0.275668         2.742941
 H         2.257754         2.673112         0.756737
