19
Iteration:  1809charge 0 multiplicity 1
 C         4.852085         0.051983        -0.394714
 C         3.281148         0.193156        -0.397443
 C         2.260761         0.872367        -1.269606
 C         1.447454         0.248489        -0.076359
 C         2.319141        -0.993206        -0.178030
 O         2.534150        -1.586784         1.141499
 C         2.465637        -0.422549         2.062989
 C         2.415125         0.711615         1.012216
 O         2.508806         1.952079         1.560546
 H         5.361483        -0.130285         0.571740
 H         5.135823        -0.758176        -1.153719
 H         5.272422         1.036577        -0.872048
 H         2.122646         2.026823        -1.242084
 H         2.359569         0.451349        -2.277211
 H         0.307687         0.121917         0.167505
 H         2.061026        -1.827741        -0.897173
 H         1.456207        -0.515765         2.587751
 H         3.248297        -0.537260         2.816112
 H         2.597554         2.694996         0.936489
