19
Iteration:  1636
 C         4.877451         0.111868        -0.390572
 C         3.341292         0.172391        -0.354907
 C         2.343504         0.818538        -1.207060
 C         1.405201         0.273309        -0.116273
 C         2.251703        -1.060504        -0.047077
 O         2.371481        -1.615446         1.177796
 C         2.635640        -0.335301         1.905527
 C         2.469267         0.716055         0.933476
 O         2.411908         1.933020         1.599145
 H         5.227848        -0.496722         0.391662
 H         5.228299        -0.262722        -1.302615
 H         5.301149         1.129727        -0.342006
 H         2.524047         1.928441        -1.334164
 H         2.213390         0.336505        -2.390951
 H         0.208589         0.341381         0.104075
 H         2.194795        -1.648916        -1.020472
 H         1.824714        -0.473665         2.625039
 H         3.672897        -0.466476         2.316846
 H         2.278412         2.521273         0.829353
