19
Iteration:  1856charge 0 multiplicity 1
 C         4.820191         0.204787        -0.441019
 C         3.280055         0.187256        -0.302564
 C         2.329070         0.819172        -1.292073
 C         1.408942         0.222497        -0.155259
 C         2.254617        -1.007946        -0.115166
 O         2.453002        -1.606891         1.203555
 C         2.453189        -0.437781         2.006986
 C         2.468866         0.652672         0.945441
 O         2.611786         1.947852         1.574850
 H         5.241935        -0.337006         0.490942
 H         5.312351        -0.229624        -1.324554
 H         5.166892         1.302195        -0.252570
 H         2.395606         1.839136        -1.328215
 H         1.963038         0.349777        -2.290486
 H         0.334800         0.271999         0.100833
 H         2.114278        -1.725524        -0.868140
 H         1.698788        -0.533471         2.823584
 H         3.504433        -0.347943         2.465587
 H         2.158900         2.611763         0.951303
