19
Iteration:  3410
 C         4.851335         0.321647        -0.395864
 C         3.295008         0.256858        -0.305123
 C         2.257544         1.100452        -1.148592
 C         1.454200         0.508052        -0.011892
 C         2.279631        -0.842870        -0.336229
 O         2.364087        -1.771715         0.790638
 C         2.531568        -0.763841         1.816823
 C         2.484058         0.555162         1.074751
 O         2.528698         1.740541         1.943335
 H         5.166189        -0.526360        -1.043412
 H         5.243173         1.199571        -0.992634
 H         5.210262         0.232456         0.617817
 H         2.443179         2.196421        -1.316263
 H         1.951192         0.614796        -2.050431
 H         0.355891         0.540542         0.097564
 H         1.952668        -1.337384        -1.256389
 H         1.723946        -0.957348         2.545648
 H         3.444991        -0.902369         2.491423
 H         3.480429         2.151904         1.813899
