19
Iteration:   227charge 0 multiplicity 1
 C         4.859653         0.046884        -0.411590
 C         3.314369         0.218793        -0.285147
 C         2.259533         0.905415        -1.179856
 C         1.306396         0.253347        -0.119736
 C         2.380230        -1.029997        -0.077852
 O         2.511811        -1.576567         1.203778
 C         2.473593        -0.444966         2.064518
 C         2.411221         0.625791         0.930970
 O         2.501523         2.007980         1.344518
 H         5.452186        -0.370711         0.408879
 H         5.033995        -0.548527        -1.371538
 H         5.556404         0.997559        -0.664153
 H         2.222831         2.089410        -0.968225
 H         2.122862         0.561946        -2.203352
 H         0.237107         0.297023         0.028508
 H         2.074692        -1.802558        -0.705286
 H         1.419543        -0.435154         2.490953
 H         3.219044        -0.482582         2.928944
 H         3.487470         2.238315         1.199714
