19
Iteration:  3210charge 0 multiplicity 1
 C         4.814291         0.201570        -0.442894
 C         3.236574         0.335573        -0.272138
 C         2.273560         1.192741        -0.993997
 C         1.353056         0.295654        -0.016843
 C         2.345507        -0.905557        -0.315866
 O         2.462803        -1.711828         0.856278
 C         2.466996        -0.762050         1.935478
 C         2.471084         0.610656         1.075805
 O         2.681923         1.793390         1.661359
 H         5.384036         1.090096        -0.121957
 H         5.143578        -0.811215        -0.127286
 H         4.850410         0.314778        -1.598658
 H         2.356231         2.267618        -0.807125
 H         2.173320         1.105554        -2.093649
 H         0.186929         0.380090         0.224613
 H         2.194242        -1.594705        -1.146739
 H         1.567592        -0.891372         2.617145
 H         3.469523        -0.785069         2.494421
 H         1.938091         2.335414         1.615562
