19
Iteration:  4954
 C         4.882303         0.428630        -0.459911
 C         3.367659         0.353544        -0.283100
 C         2.200606         1.058151        -1.170832
 C         1.431533         0.309850        -0.064871
 C         2.194059        -0.912069        -0.319831
 O         2.374351        -1.708708         0.808825
 C         2.454599        -0.699007         1.884575
 C         2.514117         0.555575         1.045858
 O         2.633851         1.671839         1.982139
 H         5.256888        -0.255168        -1.259345
 H         5.240665         1.492955        -0.821552
 H         5.297640        -0.077484         0.410436
 H         2.121850         2.107354        -0.855751
 H         2.185514         0.732108        -2.203982
 H         0.344146         0.546206         0.103690
 H         1.972624        -1.396916        -1.255362
 H         1.544322        -0.795085         2.509190
 H         3.373914        -0.959251         2.496858
 H         3.094808         2.393896         1.617046
