19
Iteration:  3253
 C         4.831744         0.376180        -0.468935
 C         3.343597         0.282764        -0.266877
 C         2.261888         1.105257        -1.079710
 C         1.395591         0.369244        -0.021957
 C         2.225696        -0.894141        -0.278614
 O         2.287915        -1.737863         0.852493
 C         2.604946        -0.704056         1.897441
 C         2.477200         0.530796         1.007880
 O         2.640607         1.729763         1.816983
 H         5.109338         1.408010        -0.889976
 H         5.220009         0.213793         0.575969
 H         5.414111        -0.410051        -1.168619
 H         2.292851         2.202761        -1.039117
 H         2.188166         0.824398        -2.184888
 H         0.266250         0.310752         0.266312
 H         2.057511        -1.511446        -1.193614
 H         1.851971        -0.820753         2.721589
 H         3.577348        -1.086798         2.384194
 H         2.578216         2.542450         1.322911
