19
Iteration:  3871charge 0 multiplicity 1
 C         4.808982         0.177219        -0.474712
 C         3.376840         0.264158        -0.164979
 C         2.393964         1.226473        -1.058887
 C         1.445439         0.398451        -0.104303
 C         2.315983        -0.855185        -0.331497
 O         2.364880        -1.724601         0.818867
 C         2.506873        -0.773360         1.899446
 C         2.357949         0.591864         1.091894
 O         2.503647         1.750252         1.829898
 H         4.948198         0.117739        -1.544720
 H         5.194772         1.178891        -0.165713
 H         5.327794        -0.684492        -0.090687
 H         2.308410         2.318076        -0.881934
 H         2.305427         1.180054        -2.093637
 H         0.389626         0.158800         0.052773
 H         1.989278        -1.351567        -1.241801
 H         1.811348        -0.910512         2.717912
 H         3.520408        -0.887876         2.295079
 H         2.933898         2.452303         1.269157
