19
Iteration:  4454charge 0 multiplicity 1
 C         4.835441         0.311188        -0.257720
 C         3.346247         0.298204        -0.286305
 C         2.264707         1.189298        -0.962390
 C         1.398764         0.408503        -0.051501
 C         2.264646        -0.869607        -0.320880
 O         2.345510        -1.806129         0.801695
 C         2.471928        -0.846110         1.835405
 C         2.452531         0.561640         1.070586
 O         2.731460         1.788678         1.631315
 H         5.293738         0.820215        -1.225901
 H         5.025529         1.102108         0.581052
 H         5.215413        -0.723899        -0.058166
 H         2.403900         2.218775        -0.568397
 H         1.973309         1.050495        -2.008254
 H         0.274528         0.553806        -0.034295
 H         2.150154        -1.483399        -1.284767
 H         1.652654        -1.114113         2.552368
 H         3.412333        -0.881446         2.393135
 H         2.065695         2.433080         1.365899
