19
Iteration:  1735charge 0 multiplicity 1
 C         4.836800         0.213851        -0.358096
 C         3.323343         0.151687        -0.265555
 C         2.252826         0.827824        -1.310392
 C         1.402256         0.241904        -0.075446
 C         2.328517        -1.037659        -0.102135
 O         2.391888        -1.651592         1.160807
 C         2.540089        -0.385470         1.929888
 C         2.437682         0.659178         0.890133
 O         2.588607         1.953893         1.579533
 H         5.308176        -0.552332         0.271618
 H         5.093911        -0.017215        -1.364428
 H         5.200878         1.229364        -0.002487
 H         2.291886         1.849734        -1.457851
 H         2.093358         0.252798        -2.349779
 H         0.278768         0.458697         0.081869
 H         2.094496        -1.844430        -0.758792
 H         1.727947        -0.199286         2.684795
 H         3.500032        -0.385766         2.529923
 H         2.369527         2.658071         0.998250
