19
Iteration:  3429charge 0 multiplicity 1
 C         4.805983         0.281391        -0.390805
 C         3.328760         0.379300        -0.208857
 C         2.303056         1.161008        -1.038916
 C         1.345510         0.363529        -0.072214
 C         2.252517        -0.868677        -0.350017
 O         2.379415        -1.709404         0.773590
 C         2.474322        -0.773297         1.885341
 C         2.492161         0.533445         1.083696
 O         2.660533         1.721228         1.813212
 H         5.115386        -0.518461        -1.080385
 H         5.099795         1.145009        -0.884484
 H         5.273752         0.174207         0.631567
 H         2.241636         2.243384        -0.810692
 H         2.228058         0.848036        -2.086813
 H         0.256165         0.309867         0.193552
 H         2.304618        -1.334864        -1.276266
 H         1.653643        -0.991727         2.561694
 H         3.415003        -1.103419         2.315681
 H         2.847634         2.457867         1.125223
