19
Iteration:  1928charge 0 multiplicity 1
 C         4.769796         0.105283        -0.341495
 C         3.289494         0.253472        -0.281159
 C         2.227001         0.819069        -1.250532
 C         1.349457         0.179604        -0.142871
 C         2.300793        -1.016956        -0.115496
 O         2.520167        -1.602400         1.187057
 C         2.524113        -0.377273         1.945219
 C         2.477533         0.685214         0.927182
 O         2.579820         1.926464         1.543198
 H         5.244936        -0.789935        -0.087115
 H         5.016833         0.401765        -1.364597
 H         5.113877         0.856128         0.275654
 H         2.338458         1.957454        -1.206184
 H         2.322812         0.390291        -2.181510
 H         0.236362         0.414908        -0.075756
 H         2.085740        -1.888976        -0.858426
 H         1.628830        -0.170898         2.574040
 H         3.428577        -0.368249         2.519824
 H         2.830326         2.574603         0.810608
