19
Iteration:   847charge 0 multiplicity 1
 C         4.811782         0.208033        -0.333013
 C         3.258637         0.178148        -0.344385
 C         2.250995         0.791983        -1.263777
 C         1.331401         0.220463        -0.083378
 C         2.266043        -0.984457        -0.139986
 O         2.544171        -1.612550         1.131445
 C         2.486386        -0.415093         2.054260
 C         2.450953         0.697681         0.943668
 O         2.653305         1.920390         1.535331
 H         5.088592        -0.511904         0.428299
 H         5.225197        -0.347955        -1.258574
 H         5.351984         1.147956        -0.214668
 H         2.063739         1.864442        -1.541336
 H         2.285862         0.271417        -2.226536
 H         0.217485         0.344750        -0.184895
 H         2.063684        -1.670085        -0.878321
 H         1.592559        -0.144694         2.619138
 H         3.360904        -0.435618         2.667981
 H         2.426253         2.540231         0.900340
