19
Iteration:  3485
 C         4.800858         0.211214        -0.336818
 C         3.296817         0.348582        -0.212452
 C         2.325281         1.084246        -1.054228
 C         1.398970         0.403575        -0.031373
 C         2.190820        -0.835831        -0.367028
 O         2.401992        -1.731604         0.764909
 C         2.565633        -0.731885         1.834010
 C         2.531738         0.573605         1.066171
 O         2.603178         1.799704         1.743771
 H         5.033192        -0.011124        -1.399784
 H         5.159875         1.185156        -0.021759
 H         5.331548        -0.464045         0.372356
 H         2.279454         2.196325        -1.118056
 H         2.265407         0.805710        -2.071088
 H         0.289371         0.389915        -0.023978
 H         1.898708        -1.313307        -1.278236
 H         1.689858        -0.764677         2.466149
 H         3.380655        -1.125183         2.446270
 H         2.375007         1.714220         2.675803
