19
Iteration:  1947
 C         4.808158         0.126562        -0.389647
 C         3.324529         0.104118        -0.421142
 C         2.216272         0.826147        -1.326475
 C         1.399901         0.312998        -0.106496
 C         2.327220        -1.024830        -0.143295
 O         2.553277        -1.545882         1.157578
 C         2.438015        -0.399152         2.063056
 C         2.431576         0.723715         0.973273
 O         2.563349         1.930067         1.592526
 H         4.963022        -0.889625         0.039651
 H         5.396257         0.064225        -1.363004
 H         5.235757         0.793651         0.388074
 H         2.294916         1.851536        -1.438554
 H         1.752072         0.311394        -2.235053
 H         0.453752         0.111097         0.267601
 H         2.374770        -1.907633        -0.943784
 H         1.567515        -0.583766         2.695879
 H         3.347081        -0.286700         2.749390
 H         2.508322         2.706621         1.022449
