19
Iteration:   611
 C         4.833269         0.215841        -0.383804
 C         3.305486         0.197179        -0.296171
 C         2.272303         0.774853        -1.240781
 C         1.399783         0.209336        -0.140239
 C         2.313263        -1.056198        -0.158225
 O         2.413634        -1.560216         1.178515
 C         2.497950        -0.416504         2.002249
 C         2.484958         0.646823         0.981704
 O         2.592279         1.950619         1.536124
 H         5.260854        -0.470591         0.336946
 H         5.155172        -0.188356        -1.319555
 H         5.264798         1.288175        -0.307020
 H         2.098235         1.911694        -1.496232
 H         2.193769         0.168568        -2.164869
 H         0.324817         0.365839         0.042417
 H         2.178552        -1.769754        -0.918534
 H         1.607521        -0.198470         2.627920
 H         3.359047        -0.532080         2.698162
 H         2.285521         2.667562         0.870559
