19
Iteration:  3698
 C         4.772655         0.194746        -0.469900
 C         3.287245         0.285151        -0.327913
 C         2.392610         1.230504        -1.036487
 C         1.400920         0.377795        -0.124085
 C         2.266519        -0.915930        -0.292068
 O         2.481246        -1.707066         0.818616
 C         2.414939        -0.684025         1.885076
 C         2.473606         0.588846         1.046095
 O         2.557502         1.656220         1.901937
 H         5.057550        -0.624441        -1.055426
 H         5.208663         1.172040        -0.685474
 H         5.074470         0.108059         0.549003
 H         2.517096         2.206707        -0.599505
 H         2.214613         1.255064        -2.135177
 H         0.292535         0.427172        -0.151882
 H         2.036816        -1.333970        -1.247302
 H         1.538364        -0.608416         2.543349
 H         3.334369        -0.784919         2.481112
 H         3.106570         2.402736         1.578354
