19
Iteration:   128
 C         4.736980         0.188405        -0.355723
 C         3.300787         0.202292        -0.266513
 C         2.302696         0.938441        -1.280886
 C         1.449683         0.234251        -0.127894
 C         2.239669        -1.113150        -0.101648
 O         2.394995        -1.711671         1.281412
 C         2.635377        -0.456270         2.029655
 C         2.464715         0.671481         0.924808
 O         2.549100         2.058773         1.271074
 H         5.201684        -0.666880         0.188780
 H         5.212959        -0.066627        -1.357275
 H         5.308040         1.160472         0.029245
 H         1.932165         2.076497        -1.280159
 H         2.175858         0.562953        -2.321840
 H         0.391230         0.454071         0.089921
 H         2.010741        -1.964495        -0.715598
 H         1.786964        -0.343580         2.801579
 H         3.583691        -0.571524         2.663929
 H         2.833404         2.167506         2.165105
