19
Iteration:  4541
 C         4.817937         0.149533        -0.472368
 C         3.327484         0.312876        -0.155747
 C         2.345985         1.200133        -0.958338
 C         1.442399         0.377728         0.006156
 C         2.305203        -0.904700        -0.422087
 O         2.473305        -1.706757         0.725811
 C         2.461949        -0.728760         1.908981
 C         2.447598         0.574749         1.152353
 O         2.470375         1.800669         1.765669
 H         4.889842         0.399657        -1.572056
 H         5.434458         0.677815         0.301822
 H         5.249340        -0.843790        -0.325914
 H         2.531188         2.284688        -0.802491
 H         2.221265         0.812694        -1.971519
 H         0.324145         0.517836         0.187712
 H         2.135426        -1.448867        -1.427722
 H         1.545389        -1.018852         2.459751
 H         3.354194        -0.860537         2.543388
 H         2.535847         2.539945         1.013170
