19
Iteration:   841
 C         4.794454         0.198109        -0.356505
 C         3.277567         0.193151        -0.349835
 C         2.235889         0.779232        -1.253752
 C         1.347638         0.262464        -0.110215
 C         2.312531        -1.046049        -0.114701
 O         2.537787        -1.567283         1.127989
 C         2.470284        -0.413922         2.031611
 C         2.433075         0.684803         0.961396
 O         2.670537         1.923468         1.537791
 H         4.999473        -0.559726         0.439248
 H         5.270681        -0.178596        -1.222983
 H         5.364877         1.146255        -0.130117
 H         2.032054         1.836852        -1.323617
 H         2.028546         0.177081        -2.234881
 H         0.213631         0.258012        -0.197735
 H         2.092409        -1.763323        -1.003107
 H         1.536579        -0.223335         2.651788
 H         3.282108        -0.584708         2.795180
 H         2.502076         2.647000         0.856003
