19
Iteration:   858charge 0 multiplicity 1
 C         4.797710         0.130128        -0.320553
 C         3.300551         0.220887        -0.253338
 C         2.249311         0.839452        -1.318471
 C         1.333435         0.240737        -0.099724
 C         2.233243        -0.977935        -0.157838
 O         2.499100        -1.641896         1.181909
 C         2.550845        -0.416880         1.973902
 C         2.485963         0.659839         0.937366
 O         2.601070         1.946997         1.522497
 H         5.313914        -0.239248         0.543284
 H         5.090857        -0.347447        -1.309522
 H         5.056082         1.194057        -0.401157
 H         2.452898         1.925393        -1.497046
 H         2.237357         0.274638        -2.218726
 H         0.266992         0.200735         0.233799
 H         2.150909        -1.721401        -0.869018
 H         1.750619        -0.611225         2.672541
 H         3.466067        -0.221366         2.498867
 H         2.304763         2.654183         0.919586
