19
Iteration:  4533charge 0 multiplicity 1
 C         4.773048         0.162071        -0.481923
 C         3.367209         0.289040        -0.216655
 C         2.339940         1.131138        -0.959947
 C         1.421727         0.391402        -0.039686
 C         2.340031        -0.869074        -0.342737
 O         2.455716        -1.686179         0.726036
 C         2.447518        -0.662933         1.909726
 C         2.483985         0.570375         1.115779
 O         2.482273         1.741320         1.817457
 H         5.220622         0.557934        -1.494080
 H         5.386016         0.690918         0.255788
 H         5.010196        -0.929953        -0.391367
 H         2.320643         2.187838        -0.790882
 H         2.411750         1.066593        -2.041174
 H         0.354896         0.426674        -0.021135
 H         2.108009        -1.474008        -1.266589
 H         1.586302        -0.789673         2.565282
 H         3.350215        -0.976591         2.380969
 H         2.266042         2.553305         1.270187
