19
Iteration:  1447charge 0 multiplicity 1
 C         4.802758         0.079496        -0.408085
 C         3.297924         0.183098        -0.209179
 C         2.247859         0.930030        -1.195550
 C         1.374751         0.224739        -0.089854
 C         2.400860        -1.005968        -0.134925
 O         2.520359        -1.611147         1.202628
 C         2.495377        -0.466139         2.003746
 C         2.404669         0.661516         0.937490
 O         2.562963         2.008818         1.393225
 H         4.967279        -0.729698         0.254973
 H         5.104265        -0.253326        -1.387858
 H         5.349723         0.881269        -0.069199
 H         2.178116         1.933590        -1.025890
 H         2.086343         0.681145        -2.289745
 H         0.227609         0.267582         0.096375
 H         2.518905        -1.753878        -0.831530
 H         1.512518        -0.365292         2.526304
 H         3.321511        -0.534134         2.708409
 H         2.220101         2.577628         0.618235
