19
Iteration:  4754charge 0 multiplicity 1
 C         4.848588         0.238811        -0.408344
 C         3.290123         0.342078        -0.287709
 C         2.240540         1.165872        -0.969678
 C         1.285560         0.267535        -0.219723
 C         2.286407        -0.862271        -0.344243
 O         2.352068        -1.666700         0.852873
 C         2.667835        -0.705007         1.888897
 C         2.434424         0.523470         1.073419
 O         2.581781         1.723838         1.845191
 H         5.363782         0.765226        -1.209770
 H         5.345965         0.534966         0.567142
 H         5.193370        -0.854399        -0.485224
 H         2.370703         2.249354        -0.738457
 H         2.266509         1.179881        -2.059840
 H         0.180420         0.297162        -0.247616
 H         2.177886        -1.564948        -1.178473
 H         2.001173        -0.798635         2.779759
 H         3.720636        -0.641717         2.214436
 H         2.889650         2.609339         1.373609
