19
Iteration:  2132charge 0 multiplicity 1
 C         4.824282         0.144766        -0.452464
 C         3.322149         0.151634        -0.168391
 C         2.338783         0.868688        -1.141827
 C         1.362215         0.206368        -0.086705
 C         2.323846        -1.024453        -0.132777
 O         2.312228        -1.607663         1.122259
 C         2.666830        -0.443392         1.994767
 C         2.464599         0.683985         0.959679
 O         2.468306         2.026483         1.447025
 H         5.300713        -0.737976        -0.040649
 H         5.093187         0.177302        -1.524543
 H         5.336970         1.025300         0.011563
 H         2.550394         1.959146        -1.130723
 H         2.241144         0.228038        -2.114181
 H         0.338600         0.345206         0.097505
 H         2.182105        -1.831659        -0.944002
 H         1.938159        -0.502995         2.757537
 H         3.684674        -0.656681         2.467285
 H         2.307965         2.592026         0.624079
