19
Iteration:   620charge 0 multiplicity 1
 C         4.809370         0.203180        -0.406783
 C         3.375102         0.166423        -0.250833
 C         2.227562         0.771007        -1.214187
 C         1.432750         0.250848        -0.114607
 C         2.375098        -0.993289        -0.179409
 O         2.340635        -1.610893         1.235490
 C         2.525519        -0.393770         1.980901
 C         2.464975         0.705388         0.899470
 O         2.566900         1.868212         1.551313
 H         5.378284        -0.228029         0.377921
 H         5.134375        -0.159967        -1.367835
 H         5.087739         1.318805        -0.374586
 H         2.237324         1.760578        -1.612785
 H         2.200012         0.121635        -2.189478
 H         0.267695         0.479784        -0.074435
 H         2.195616        -1.622729        -0.979051
 H         1.668233        -0.415425         2.705566
 H         3.510000        -0.161785         2.494169
 H         2.378892         2.612351         0.842767
