19
Iteration:  1361
 C         4.818022         0.232629        -0.427452
 C         3.326669         0.141426        -0.243150
 C         2.262801         0.898587        -1.213998
 C         1.421062         0.211992        -0.150190
 C         2.384358        -1.089458        -0.155341
 O         2.356302        -1.632274         1.206199
 C         2.515463        -0.409723         2.059152
 C         2.441866         0.663667         0.935449
 O         2.582967         1.966244         1.470147
 H         5.266233        -0.033335         0.547812
 H         5.200028        -0.578162        -1.091176
 H         5.240289         1.265402        -0.726059
 H         2.142809         2.022861        -1.283543
 H         2.061133         0.520170        -2.173020
 H         0.272367         0.085344         0.037385
 H         2.269593        -1.743768        -0.937035
 H         1.709262        -0.351345         2.785215
 H         3.458429        -0.607419         2.564187
 H         2.412553         2.631661         0.780335
