19
Iteration:  4094charge 0 multiplicity 1
 C         4.748165         0.302450        -0.312642
 C         3.289909         0.306995        -0.130397
 C         2.356193         1.169864        -1.024703
 C         1.424397         0.406351        -0.153648
 C         2.225548        -0.877926        -0.418880
 O         2.331196        -1.737599         0.749993
 C         2.536321        -0.815887         1.867858
 C         2.411377         0.568348         1.127904
 O         2.717725         1.733649         1.802280
 H         5.054842        -0.498572        -1.013458
 H         5.027579         1.233485        -0.767604
 H         5.383279         0.252055         0.591424
 H         2.655642         2.235444        -0.922665
 H         2.383805         0.963778        -2.121876
 H         0.288214         0.320045        -0.133746
 H         2.198995        -1.449084        -1.370050
 H         1.804268        -1.081062         2.654910
 H         3.533959        -0.755692         2.303343
 H         2.086585         2.456553         1.453693
