19
Iteration:   387
 C         4.852582         0.074922        -0.375301
 C         3.315218         0.213791        -0.326084
 C         2.290737         0.819518        -1.327590
 C         1.437126         0.293557        -0.148780
 C         2.373008        -1.031107        -0.144019
 O         2.371632        -1.595700         1.279266
 C         2.622406        -0.374970         2.041795
 C         2.407185         0.713889         0.927223
 O         2.426960         1.922336         1.549313
 H         5.010814        -0.782628         0.309059
 H         4.933374        -0.256057        -1.402337
 H         5.358874         0.900428        -0.153069
 H         2.333541         1.841621        -1.492878
 H         2.235923         0.403184        -2.342838
 H         0.329754         0.601638        -0.190030
 H         2.348096        -1.883402        -0.908493
 H         1.947494        -0.453999         2.915113
 H         3.655496        -0.393424         2.406520
 H         2.586833         2.629811         0.820144
