19
Iteration:  2270
 C         4.860747         0.278214        -0.354950
 C         3.373950         0.196307        -0.241302
 C         2.276589         0.812129        -1.311869
 C         1.377645         0.308689        -0.099169
 C         2.215427        -1.062842        -0.103562
 O         2.313107        -1.631515         1.152098
 C         2.596275        -0.476082         1.989904
 C         2.501652         0.645937         0.920767
 O         2.549980         1.940859         1.554987
 H         5.361806        -0.156345         0.564772
 H         5.057265        -0.334487        -1.244321
 H         5.219676         1.336558        -0.584117
 H         2.321723         1.834884        -1.613619
 H         2.087926         0.230224        -2.135398
 H         0.213392         0.144310        -0.028612
 H         2.250456        -1.695878        -0.924490
 H         2.048573        -0.401122         3.004687
 H         3.661273        -0.580312         2.180910
 H         2.638043         2.590176         0.851788
