19
Iteration:  4562
 C         4.805242         0.178468        -0.427095
 C         3.357863         0.325685        -0.249727
 C         2.296099         1.247055        -0.981427
 C         1.352173         0.430707        -0.050516
 C         2.319961        -0.810679        -0.282110
 O         2.475869        -1.791299         0.779984
 C         2.467118        -0.879135         1.890575
 C         2.473196         0.553679         1.114809
 O         2.500081         1.843955         1.698940
 H         5.085003        -0.017061        -1.432638
 H         5.368518         0.973664         0.122227
 H         5.206152        -0.661568         0.141009
 H         2.242896         2.293605        -0.523379
 H         2.363581         1.175359        -2.084710
 H         0.223119         0.304380        -0.078145
 H         2.107694        -1.417026        -1.219930
 H         1.603001        -0.963086         2.596201
 H         3.410300        -1.153656         2.398004
 H         3.014967         2.415584         1.216363
