19
Iteration:  3523
 C         4.847822         0.196884        -0.421561
 C         3.340995         0.317895        -0.300376
 C         2.333309         1.214798        -1.075995
 C         1.413427         0.381579        -0.131089
 C         2.294325        -0.894745        -0.311407
 O         2.318484        -1.703569         0.863607
 C         2.553907        -0.680252         1.905435
 C         2.432085         0.593291         1.022085
 O         2.508972         1.683982         1.838403
 H         5.275470         0.733380        -1.279530
 H         5.371478         0.887675         0.350068
 H         5.121491        -0.866989        -0.343090
 H         2.192566         2.271977        -0.939078
 H         2.161746         0.878981        -2.152361
 H         0.312682         0.382096        -0.063486
 H         2.146155        -1.582251        -1.233799
 H         1.700641        -0.507255         2.644986
 H         3.576745        -0.764379         2.426495
 H         3.404873         1.666675         2.085231
