19
Iteration:   623charge 0 multiplicity 1
 C         4.814532         0.200447        -0.425890
 C         3.379722         0.156612        -0.237784
 C         2.235289         0.754295        -1.247038
 C         1.420382         0.281072        -0.089343
 C         2.386649        -0.968144        -0.153772
 O         2.319125        -1.634803         1.239350
 C         2.529236        -0.377497         1.980328
 C         2.455112         0.699067         0.877046
 O         2.554112         1.859797         1.552315
 H         5.417424        -0.134136         0.443866
 H         5.113749        -0.151014        -1.383570
 H         5.058654         1.345070        -0.393024
 H         2.340167         1.940641        -1.614006
 H         2.163768         0.175662        -2.164306
 H         0.368506         0.341046        -0.102014
 H         2.264878        -1.676158        -0.963892
 H         1.749860        -0.469577         2.743105
 H         3.548290        -0.142716         2.381098
 H         2.451646         2.559764         0.928928
