19
Iteration:  1558
 C         4.832208         0.205170        -0.394449
 C         3.321520         0.118773        -0.344655
 C         2.280875         0.927100        -1.199761
 C         1.385036         0.249786        -0.094093
 C         2.349897        -1.053328        -0.108100
 O         2.477156        -1.602705         1.189558
 C         2.431278        -0.480195         2.063306
 C         2.459457         0.651570         0.977971
 O         2.544013         1.972492         1.413082
 H         5.247590        -0.239563         0.469967
 H         5.189818        -0.374253        -1.215415
 H         5.260196         1.181418        -0.518549
 H         2.496104         1.997008        -1.200747
 H         2.030598         0.523319        -2.329988
 H         0.200491         0.261086         0.088429
 H         2.099037        -1.812054        -0.887265
 H         1.532290        -0.314782         2.732011
 H         3.301625        -0.792632         2.676851
 H         2.685343         2.573745         0.717816
