19
Iteration:  2297
 C         4.754589         0.160585        -0.411667
 C         3.320360         0.194961        -0.286887
 C         2.244677         0.809093        -1.255263
 C         1.394364         0.267121        -0.145306
 C         2.376931        -1.022110        -0.112855
 O         2.431086        -1.610760         1.109348
 C         2.496588        -0.455355         2.043767
 C         2.448780         0.700773         0.937876
 O         2.594798         1.965597         1.636674
 H         5.250024         0.209484         0.533957
 H         5.064348        -0.781269        -0.933947
 H         4.988564         1.012129        -1.012518
 H         2.385489         1.932561        -1.482084
 H         2.116671         0.301584        -2.282415
 H         0.377612         0.128688        -0.222129
 H         2.212162        -1.707676        -1.050710
 H         1.705136        -0.474822         2.763105
 H         3.540209        -0.537781         2.472972
 H         2.613798         2.726435         1.026632
