19
Iteration:  3812
 C         4.882861         0.204134        -0.345910
 C         3.304598         0.367464        -0.287169
 C         2.230532         1.136950        -1.086987
 C         1.401324         0.441561        -0.070443
 C         2.373103        -0.829001        -0.394786
 O         2.331456        -1.747899         0.775096
 C         2.462915        -0.807232         1.895862
 C         2.467805         0.586375         1.050312
 O         2.677807         1.765929         1.874126
 H         5.234290        -0.697604        -0.959374
 H         5.556827         0.986196        -0.652943
 H         5.263185         0.188985         0.684812
 H         2.078674         2.173249        -0.858861
 H         2.063953         0.730382        -2.072010
 H         0.325590         0.492285         0.067202
 H         2.095564        -1.408557        -1.321693
 H         1.520798        -0.914485         2.505131
 H         3.280588        -1.185709         2.568324
 H         2.063471         2.485999         1.493520
