19
Iteration:  3557
 C         4.828773         0.210639        -0.442196
 C         3.354703         0.233814        -0.272642
 C         2.348015         1.259248        -0.940228
 C         1.451015         0.363579        -0.009460
 C         2.280742        -0.859285        -0.310564
 O         2.378726        -1.799729         0.788831
 C         2.480583        -0.727564         1.913560
 C         2.443231         0.523073         1.078320
 O         2.517810         1.868442         1.709057
 H         5.067415         0.836717        -1.302069
 H         5.185275         0.497200         0.581577
 H         5.263150        -0.834540        -0.611387
 H         2.341757         2.323211        -0.785807
 H         2.149560         1.004663        -2.058270
 H         0.372678         0.550144        -0.031418
 H         2.188134        -1.416700        -1.214924
 H         1.502614        -0.924549         2.448900
 H         3.266903        -1.075821         2.624935
 H         3.173093         2.238762         1.155277
