19
Iteration:   714charge 0 multiplicity 1
 C         4.765331         0.061805        -0.315434
 C         3.284409         0.261201        -0.243248
 C         2.249437         0.828666        -1.241503
 C         1.320904         0.215321        -0.096994
 C         2.306840        -1.063831        -0.126830
 O         2.569115        -1.587006         1.134666
 C         2.520950        -0.467275         1.923418
 C         2.487035         0.696910         0.922681
 O         2.585822         2.012308         1.515200
 H         5.268282        -0.443053         0.564721
 H         5.038815        -0.402513        -1.338348
 H         5.215313         1.044515        -0.307485
 H         2.233729         2.031417        -1.244941
 H         2.221507         0.594195        -2.292849
 H         0.274182         0.231576         0.144313
 H         2.153917        -1.919329        -0.890790
 H         1.496376        -0.504737         2.338196
 H         3.225159        -0.227101         2.704765
 H         2.286316         2.742840         1.036885
