19
Iteration:  3378
 C         4.809737         0.267153        -0.449802
 C         3.322495         0.317190        -0.281652
 C         2.302892         1.200569        -1.059809
 C         1.394763         0.370954        -0.123150
 C         2.275225        -0.874443        -0.364321
 O         2.339123        -1.685213         0.889239
 C         2.608832        -0.669959         1.852564
 C         2.473118         0.527908         1.037727
 O         2.568052         1.703047         1.854774
 H         4.921642        -0.605241        -1.138384
 H         5.260351         1.245307        -0.893084
 H         5.365535        -0.030707         0.441829
 H         2.381694         2.316382        -0.947233
 H         2.099278         0.898715        -2.068194
 H         0.327013         0.223647         0.048728
 H         2.046923        -1.376986        -1.317996
 H         1.753933        -0.818759         2.530942
 H         3.628008        -0.837193         2.313267
 H         2.557347         1.372526         2.758878
