19
Iteration:   533charge 0 multiplicity 1
 C         4.871581         0.099863        -0.361973
 C         3.263065         0.161435        -0.329290
 C         2.250529         0.847708        -1.281870
 C         1.419127         0.252334        -0.175382
 C         2.382810        -1.140461        -0.083766
 O         2.368508        -1.629569         1.178080
 C         2.607852        -0.400466         1.962729
 C         2.470828         0.725102         0.991440
 O         2.430901         2.048529         1.566702
 H         5.139348        -0.765681         0.189167
 H         5.148636        -0.029954        -1.414154
 H         5.461732         0.970929         0.114238
 H         2.439626         2.001454        -1.272814
 H         2.012422         0.280923        -2.259920
 H         0.336898         0.569235        -0.122143
 H         2.314350        -1.794983        -0.858181
 H         1.982781        -0.588993         2.842186
 H         3.675196        -0.299330         2.253733
 H         2.603171         2.753295         0.929757
