19
Iteration:  3381charge 0 multiplicity 1
 C         4.837769         0.275394        -0.443566
 C         3.299927         0.305124        -0.287445
 C         2.309116         1.196768        -1.094804
 C         1.393860         0.346456        -0.102520
 C         2.261386        -0.870183        -0.347971
 O         2.337170        -1.676862         0.874531
 C         2.620507        -0.653643         1.842266
 C         2.490529         0.531859         1.036794
 O         2.553096         1.708756         1.882610
 H         4.989493        -0.523007        -1.165792
 H         5.235100         1.188771        -0.981191
 H         5.234244         0.005590         0.513927
 H         2.369773         2.245131        -0.896830
 H         2.181795         0.804713        -2.136068
 H         0.327982         0.378545         0.050697
 H         1.966913        -1.388368        -1.338679
 H         1.749570        -0.847925         2.493765
 H         3.539959        -0.879289         2.362710
 H         2.705096         1.270875         2.722729
