19
Iteration:  4427charge 0 multiplicity 1
 C         4.784043         0.256011        -0.267801
 C         3.344708         0.333553        -0.304101
 C         2.266361         1.256609        -0.948405
 C         1.399062         0.266942        -0.125231
 C         2.247799        -0.897210        -0.407625
 O         2.379727        -1.687536         0.776000
 C         2.462935        -0.677079         1.901302
 C         2.531623         0.530756         1.021264
 O         2.720267         1.682027         1.752015
 H         5.063607         0.127352        -1.244622
 H         5.148807         1.181194         0.130439
 H         5.045370        -0.634347         0.313444
 H         2.206645         2.238602        -0.502381
 H         2.144735         1.157838        -2.035762
 H         0.343331         0.342225         0.125509
 H         2.184977        -1.548729        -1.248973
 H         1.594200        -0.864518         2.535816
 H         3.370348        -0.683207         2.556769
 H         1.972740         2.273430         1.454647
