19
Iteration:  2692charge 0 multiplicity 1
 C         4.765677         0.091776        -0.401458
 C         3.252212         0.213142        -0.328340
 C         2.236487         1.038679        -1.141310
 C         1.382446         0.304475        -0.023293
 C         2.281227        -0.890608        -0.158884
 O         2.566208        -1.621699         1.000048
 C         2.514060        -0.578428         1.965370
 C         2.553275         0.601939         1.027356
 O         2.508097         1.917604         1.474663
 H         5.038811        -0.967192        -0.447347
 H         5.193882         0.630749        -1.251634
 H         5.132476         0.477244         0.539541
 H         2.347263         2.186562        -0.983039
 H         1.988652         0.618133        -2.072103
 H         0.247342         0.154224         0.034639
 H         2.193357        -1.700481        -1.127720
 H         1.559398        -0.452991         2.511546
 H         3.394174        -0.649772         2.543665
 H         2.996650         1.947988         2.348857
