19
Iteration:   894charge 0 multiplicity 1
 C         4.892058         0.081479        -0.459437
 C         3.322971         0.197952        -0.283309
 C         2.327266         0.952508        -1.183531
 C         1.406052         0.193543        -0.110767
 C         2.259204        -1.026105        -0.167557
 O         2.340906        -1.585209         1.210859
 C         2.654809        -0.460963         2.043012
 C         2.456415         0.670028         0.971336
 O         2.440216         1.964965         1.480100
 H         5.403428        -0.085820         0.502261
 H         5.342049        -0.627744        -1.119612
 H         5.275510         1.077174        -0.851869
 H         2.302503         2.018458        -1.157682
 H         2.084218         0.722775        -2.309522
 H         0.310265        -0.080057         0.234806
 H         2.174874        -1.697136        -1.054088
 H         1.971674        -0.337269         2.905117
 H         3.667705        -0.524568         2.390025
 H         2.240866         2.503557         0.669823
