19
Iteration:  2838charge 0 multiplicity 1
 C         4.834718         0.077496        -0.398097
 C         3.306898         0.245907        -0.365987
 C         2.215107         0.928983        -1.229346
 C         1.370124         0.376626        -0.063867
 C         2.247388        -0.841790        -0.236284
 O         2.582483        -1.567491         0.954464
 C         2.540329        -0.564374         1.960981
 C         2.433572         0.606258         1.031704
 O         2.520685         1.837133         1.703878
 H         5.234784         0.674325         0.415214
 H         4.971292        -0.972363        -0.294134
 H         5.329953         0.477716        -1.278951
 H         2.187268         1.940409        -1.307223
 H         2.009258         0.555383        -2.260390
 H         0.342967         0.508139         0.143654
 H         1.834250        -1.504790        -0.979581
 H         1.674706        -0.570251         2.618635
 H         3.362942        -0.698218         2.588691
 H         3.130282         1.677450         2.399528
