19
Iteration:  1283
 C         4.814773         0.064461        -0.360414
 C         3.326671         0.237392        -0.287815
 C         2.261381         0.824211        -1.310784
 C         1.404286         0.165922        -0.135347
 C         2.319197        -1.040840        -0.156698
 O         2.392705        -1.549482         1.213845
 C         2.655976        -0.343186         2.013170
 C         2.472002         0.672322         0.936234
 O         2.464574         1.956214         1.579952
 H         5.142889        -0.941635        -0.021517
 H         5.123513         0.209029        -1.440936
 H         5.391486         0.886494         0.144325
 H         2.211121         1.939248        -1.353247
 H         2.086341         0.315142        -2.291965
 H         0.342193         0.323641        -0.321602
 H         2.246122        -1.777008        -0.940493
 H         1.903080        -0.371308         2.802849
 H         3.669268        -0.264924         2.420069
 H         2.216661         2.558060         0.906899
