19
Iteration:   256
 C         4.783935         0.117059        -0.343905
 C         3.297733         0.149763        -0.270300
 C         2.322071         0.779950        -1.208835
 C         1.386381         0.181210        -0.110507
 C         2.299948        -0.986653        -0.162099
 O         2.350495        -1.589442         1.167432
 C         2.659552        -0.413178         2.022242
 C         2.510553         0.673315         0.940020
 O         2.462563         2.067912         1.450944
 H         5.289078        -0.252247         0.622695
 H         5.166183        -0.519717        -1.157727
 H         5.112235         1.093615        -0.521110
 H         2.340271         1.882282        -1.212915
 H         2.137330         0.437247        -2.269850
 H         0.269321         0.105471         0.008299
 H         2.105028        -1.783363        -0.961513
 H         1.821526        -0.289179         2.688740
 H         3.577968        -0.580941         2.552827
 H         3.145523         2.584032         0.934295
