19
Iteration:  2147charge 0 multiplicity 1
 C         4.781775         0.091231        -0.448952
 C         3.322373         0.196744        -0.328092
 C         2.350942         0.872503        -1.241331
 C         1.449279         0.263794        -0.173311
 C         2.308829        -1.001074        -0.131158
 O         2.346810        -1.572049         1.233123
 C         2.617749        -0.484364         2.050830
 C         2.477417         0.663686         1.051951
 O         2.440744         1.964066         1.516369
 H         5.149356        -0.947991        -0.202107
 H         4.966176         0.344310        -1.577095
 H         5.297804         0.857761         0.134956
 H         2.217252         1.941089        -1.295773
 H         2.308118         0.532985        -2.306960
 H         0.313601         0.079803        -0.266629
 H         2.398589        -1.800988        -0.910838
 H         2.073318        -0.358771         3.042219
 H         3.700984        -0.387913         2.293681
 H         2.369847         2.585038         0.723921
