19
Iteration:  3336
 C         4.791406         0.209513        -0.419265
 C         3.283308         0.282660        -0.229889
 C         2.266272         1.218728        -0.937175
 C         1.416940         0.329739         0.079560
 C         2.228994        -0.826794        -0.404372
 O         2.482282        -1.765643         0.766990
 C         2.494508        -0.809476         1.879137
 C         2.538026         0.561554         1.090003
 O         2.611692         1.848650         1.699360
 H         5.005048         0.097235        -1.455331
 H         5.193542         1.281602        -0.246476
 H         5.129012        -0.512555         0.210454
 H         2.433408         2.247814        -0.646520
 H         2.074935         0.990471        -1.966632
 H         0.369016         0.332194         0.056392
 H         2.042500        -1.568117        -1.232932
 H         1.652110        -0.781924         2.590832
 H         3.415067        -1.027471         2.395811
 H         2.059176         2.360746         1.110774
