19
Iteration:  4688
 C         4.784598         0.196351        -0.456996
 C         3.287280         0.342139        -0.221961
 C         2.248768         1.200497        -0.930528
 C         1.382481         0.351723        -0.049848
 C         2.382265        -0.936726        -0.439990
 O         2.465479        -1.688039         0.809273
 C         2.475135        -0.705543         1.859853
 C         2.428272         0.557474         1.074160
 O         2.645435         1.761841         1.808849
 H         4.887705        -0.118264        -1.520030
 H         5.302781         1.167880        -0.317003
 H         5.124885        -0.592533         0.275392
 H         2.490346         2.233384        -0.786878
 H         2.266192         1.105351        -1.995460
 H         0.308207         0.550943        -0.004772
 H         2.281942        -1.522639        -1.345379
 H         1.623570        -1.018618         2.475505
 H         3.389426        -0.813259         2.423421
 H         1.795153         2.097310         1.863402
