19
Iteration:  1406charge 0 multiplicity 1
 C         4.799253         0.119303        -0.406163
 C         3.321057         0.177159        -0.378271
 C         2.276222         0.781964        -1.326990
 C         1.417833         0.292376        -0.136175
 C         2.372926        -1.047426        -0.050421
 O         2.402381        -1.630269         1.211160
 C         2.537817        -0.446417         1.976341
 C         2.441630         0.737106         0.970331
 O         2.458889         1.975096         1.602841
 H         5.379801        -0.236369         0.474924
 H         5.281623        -0.386982        -1.275686
 H         5.060884         1.254803        -0.686617
 H         2.438794         1.936604        -1.454303
 H         2.273012         0.337976        -2.261428
 H         0.250941         0.497616         0.075086
 H         2.372698        -1.762911        -0.858298
 H         1.866515        -0.488536         2.801914
 H         3.611818        -0.350276         2.340623
 H         2.776474         2.654895         1.019578
