19
Iteration:  4775charge 0 multiplicity 1
 C         4.697760         0.311019        -0.380763
 C         3.253128         0.317981        -0.172102
 C         2.257022         1.273184        -1.021555
 C         1.442869         0.290790        -0.104726
 C         2.303981        -0.937898        -0.323716
 O         2.381887        -1.784041         0.832064
 C         2.516771        -0.783363         1.916693
 C         2.487884         0.558459         1.081438
 O         2.649903         1.768803         1.695161
 H         4.842949         1.055709        -1.160086
 H         5.341029         0.641320         0.447689
 H         5.310142        -0.523946        -0.771132
 H         2.283586         2.346220        -0.750308
 H         2.285373         1.153718        -2.124910
 H         0.360974         0.356399        -0.059967
 H         2.324145        -1.511175        -1.249879
 H         1.700562        -0.866123         2.697283
 H         3.482327        -0.829618         2.440076
 H         3.145230         2.391385         1.128820
