19
Iteration:  1027charge 0 multiplicity 1
 C         4.794694         0.240352        -0.333363
 C         3.260217         0.142976        -0.310544
 C         2.292301         0.865176        -1.183980
 C         1.401414         0.203398        -0.111891
 C         2.304218        -1.045469        -0.153686
 O         2.322099        -1.585188         1.202371
 C         2.679045        -0.444354         2.017197
 C         2.519236         0.653738         0.990369
 O         2.518318         1.957790         1.402108
 H         5.108453        -0.781761         0.051860
 H         5.156268         0.368123        -1.336564
 H         5.197627         1.009975         0.388878
 H         2.200511         1.917079        -1.251374
 H         2.209372         0.359858        -2.212288
 H         0.258421         0.486593        -0.222361
 H         2.277892        -1.785089        -0.955302
 H         2.011958        -0.647285         2.818873
 H         3.619154        -0.424964         2.456287
 H         2.598331         2.492520         0.600489
