19
Iteration:  1459
 C         4.760455         0.072741        -0.355376
 C         3.308931         0.200781        -0.354567
 C         2.241252         0.934879        -1.144179
 C         1.407109         0.228275        -0.094898
 C         2.403779        -1.058261        -0.147134
 O         2.517217        -1.679504         1.158361
 C         2.465296        -0.463682         2.095235
 C         2.448196         0.683471         1.005506
 O         2.558954         2.076423         1.371798
 H         5.139392        -0.779502         0.119199
 H         5.042937        -0.027926        -1.391655
 H         5.309504         0.899982         0.033928
 H         2.494163         1.921482        -1.273200
 H         2.043928         0.558356        -2.177850
 H         0.206994         0.090043        -0.190285
 H         2.158239        -1.753129        -0.878149
 H         1.570350        -0.601769         2.729108
 H         3.313424        -0.188288         2.728967
 H         2.192005         2.699672         0.739925
