19
Iteration:  2594
 C         4.733804         0.212842        -0.393484
 C         3.253297         0.255021        -0.226683
 C         2.241707         0.905765        -1.213208
 C         1.398407         0.273893        -0.086235
 C         2.342342        -0.987730        -0.188975
 O         2.455822        -1.653582         0.993229
 C         2.440278        -0.547662         1.973534
 C         2.488272         0.677491         1.030156
 O         2.650622         1.906122         1.623195
 H         5.000252        -0.097945        -1.420968
 H         5.163593         1.210197        -0.084044
 H         5.135549        -0.351432         0.455852
 H         2.491679         2.012501        -1.534556
 H         2.032526         0.354495        -2.110363
 H         0.269701         0.201045         0.143379
 H         2.345506        -1.680252        -1.158794
 H         1.486341        -0.595019         2.579158
 H         3.429678        -0.599642         2.557271
 H         3.267013         2.375829         0.948312
