19
Iteration:  2562
 C         4.855504         0.180057        -0.361809
 C         3.244078         0.197563        -0.327372
 C         2.266262         1.069247        -1.098861
 C         1.401904         0.195004        -0.124220
 C         2.241519        -1.083100        -0.208154
 O         2.473646        -1.650655         1.054890
 C         2.459968        -0.481004         1.978269
 C         2.469217         0.627259         1.014884
 O         2.647115         1.921543         1.506079
 H         5.420585         0.448194        -1.318825
 H         5.068509         0.954255         0.448195
 H         5.140093        -0.864296        -0.007089
 H         2.404918         2.251607        -0.888270
 H         1.993667         0.979532        -2.138450
 H         0.264914         0.245950         0.159622
 H         2.121587        -1.898012        -1.017109
 H         1.705716        -0.620699         2.795000
 H         3.430954        -0.477727         2.625908
 H         2.362892         2.527755         0.863078
