19
Iteration:  4636
 C         4.798284         0.400472        -0.397337
 C         3.334062         0.248559        -0.234182
 C         2.299217         1.079553        -1.078709
 C         1.417978         0.388597        -0.019780
 C         2.260426        -0.830016        -0.252826
 O         2.281353        -1.768654         0.727664
 C         2.550968        -0.777004         1.815219
 C         2.493576         0.555577         1.092604
 O         2.637243         1.774827         1.739977
 H         5.311285        -0.208312        -1.099470
 H         4.938431         1.527641        -0.559557
 H         5.316593         0.367694         0.617758
 H         2.594924         2.198900        -0.931030
 H         2.163797         0.724366        -2.131180
 H         0.296371         0.492531         0.200794
 H         2.105195        -1.259839        -1.266834
 H         1.645694        -0.949553         2.424874
 H         3.478365        -0.999444         2.421145
 H         2.697634         1.556215         2.704348
