19
Iteration:  2949
 C         4.753374         0.268880        -0.423077
 C         3.270577         0.297357        -0.331096
 C         2.236124         0.977681        -1.226380
 C         1.380725         0.323162        -0.095870
 C         2.344991        -0.873643        -0.175616
 O         2.428801        -1.659777         0.970010
 C         2.425152        -0.594229         1.944156
 C         2.479216         0.625188         1.012902
 O         2.653561         1.752849         1.726798
 H         5.078890         0.570607        -1.441678
 H         5.284768         0.859576         0.340313
 H         5.296715        -0.733105        -0.431328
 H         2.150781         2.096036        -1.545182
 H         2.237089         0.461798        -2.255385
 H         0.238425         0.407264        -0.005438
 H         2.373205        -1.527228        -0.977426
 H         1.615822        -0.707437         2.770784
 H         3.352273        -0.532086         2.553374
 H         3.470845         1.668048         2.356331
