19
Iteration:  4471
 C         4.782939         0.350319        -0.281604
 C         3.259382         0.268005        -0.169946
 C         2.351692         1.139339        -1.133498
 C         1.404002         0.381319        -0.010547
 C         2.222844        -0.911041        -0.406859
 O         2.331895        -1.727228         0.717865
 C         2.537583        -0.795867         1.899746
 C         2.498904         0.553217         1.084703
 O         2.708410         1.805036         1.769553
 H         5.024621         0.812571        -1.164679
 H         5.152727         0.810708         0.615216
 H         5.212799        -0.648529        -0.280267
 H         2.474826         2.248820        -1.132675
 H         2.417818         0.622993        -2.111811
 H         0.321842         0.338965         0.144519
 H         2.036116        -1.453996        -1.283075
 H         1.754130        -0.681528         2.661738
 H         3.487736        -1.114826         2.390269
 H         1.891576         2.336543         1.548404
