19
Iteration:   528charge 0 multiplicity 1
 C         4.873699         0.127071        -0.356961
 C         3.280208         0.149445        -0.299480
 C         2.267672         0.800923        -1.286754
 C         1.384639         0.235372        -0.168028
 C         2.383672        -1.035315        -0.072397
 O         2.351636        -1.595635         1.175252
 C         2.622369        -0.400279         1.973671
 C         2.455031         0.705688         0.937841
 O         2.428586         2.006430         1.579533
 H         5.311680        -0.805344         0.162864
 H         5.091670        -0.048428        -1.436893
 H         5.426387         0.957323        -0.041280
 H         2.527522         1.789559        -1.455586
 H         2.117110         0.374862        -2.312138
 H         0.312613         0.540860         0.035436
 H         2.272529        -1.835821        -0.962032
 H         2.005573        -0.503139         2.885903
 H         3.692326        -0.482261         2.259976
 H         2.643459         2.793357         1.035277
