19
Iteration:  1544
 C         4.799622         0.197257        -0.392503
 C         3.306747         0.245285        -0.221688
 C         2.301337         0.827070        -1.225710
 C         1.437343         0.236438        -0.082366
 C         2.320311        -1.006117        -0.148969
 O         2.366071        -1.647937         1.192895
 C         2.535345        -0.441112         2.013976
 C         2.460914         0.652937         0.938649
 O         2.545604         1.929419         1.450856
 H         5.301371        -0.381805         0.423732
 H         5.051266        -0.232053        -1.415888
 H         5.104254         1.226731        -0.420805
 H         2.164809         1.902931        -1.303687
 H         2.318519         0.347197        -2.293193
 H         0.418429         0.325778         0.081603
 H         2.323176        -1.759670        -0.859893
 H         1.634384        -0.536836         2.690696
 H         3.420854        -0.089187         2.541947
 H         2.836365         2.495097         0.660418
