19
Iteration:  4489
 C         4.828667         0.281090        -0.334858
 C         3.327623         0.301850        -0.311633
 C         2.329628         1.055008        -1.127120
 C         1.378640         0.389370        -0.125450
 C         2.283453        -0.825917        -0.289241
 O         2.297800        -1.690909         0.840755
 C         2.542669        -0.699055         1.807296
 C         2.467209         0.581924         1.022252
 O         2.648258         1.679350         1.930249
 H         5.233603         0.867662        -1.286640
 H         5.285070         0.738017         0.561043
 H         5.333405        -0.704692        -0.413320
 H         2.382855         2.143122        -1.122128
 H         2.124466         0.771261        -2.184724
 H         0.304619         0.430635        -0.057007
 H         2.217323        -1.384321        -1.292000
 H         1.770542        -0.861875         2.579681
 H         3.545663        -0.755510         2.260570
 H         1.874588         2.266552         1.901084
