19
Iteration:  4814charge 0 multiplicity 1
 C         4.928635         0.377819        -0.394160
 C         3.327498         0.326012        -0.277186
 C         2.132025         1.135453        -1.172007
 C         1.407064         0.345439        -0.092917
 C         2.218907        -0.886928        -0.282620
 O         2.441090        -1.770471         0.843368
 C         2.385759        -0.713569         1.915888
 C         2.584421         0.533537         1.003845
 O         2.668583         1.708350         1.877081
 H         4.923071         1.187176        -1.201233
 H         5.185210         0.793426         0.579254
 H         5.287944        -0.558876        -0.703478
 H         2.153248         2.199237        -1.011764
 H         1.975918         0.677815        -2.160893
 H         0.350345         0.323441         0.174190
 H         1.924128        -1.460982        -1.150662
 H         1.463106        -0.800581         2.442913
 H         3.205599        -0.903764         2.617438
 H         3.074825         2.457421         1.453090
