19
Iteration:  3860
 C         4.793836         0.202820        -0.490526
 C         3.257227         0.294620        -0.266861
 C         2.430034         1.227599        -1.067264
 C         1.381431         0.464151        -0.159479
 C         2.270579        -0.917277        -0.310770
 O         2.416918        -1.739208         0.845314
 C         2.505673        -0.732186         1.893385
 C         2.422171         0.551601         1.082245
 O         2.506853         1.729769         1.934354
 H         4.966876        -0.122820        -1.494536
 H         5.386593         1.136204        -0.307994
 H         5.324610        -0.461484         0.186653
 H         2.728940         2.279524        -0.917769
 H         2.345929         0.901093        -2.051207
 H         0.280945         0.594046        -0.197481
 H         2.422143        -1.578617        -1.153305
 H         1.762388        -1.004586         2.618956
 H         3.515213        -0.706594         2.313890
 H         2.847386         2.356336         1.341331
