19
Iteration:   662
 C         4.823425         0.194378        -0.444572
 C         3.334556         0.222990        -0.208683
 C         2.300946         0.842241        -1.181512
 C         1.399697         0.213159        -0.179683
 C         2.267012        -1.039127        -0.142911
 O         2.345664        -1.661415         1.176620
 C         2.555199        -0.414097         2.035251
 C         2.548200         0.647671         0.980456
 O         2.501258         1.980315         1.487033
 H         5.413933        -0.005668         0.433341
 H         5.209732        -0.510896        -1.220122
 H         5.009764         1.186438        -0.794927
 H         2.198157         1.874051        -1.174652
 H         2.167219         0.519983        -2.280522
 H         0.291680        -0.081041        -0.159789
 H         2.266611        -1.782004        -0.941992
 H         1.867101        -0.214129         2.880637
 H         3.580118        -0.465597         2.409317
 H         2.793662         2.713883         0.912298
