19
Iteration:  4313charge 0 multiplicity 1
 C         4.720309         0.286933        -0.334629
 C         3.305985         0.291951        -0.209698
 C         2.337724         1.158675        -1.025721
 C         1.470346         0.458198        -0.040521
 C         2.276858        -0.854319        -0.349574
 O         2.425886        -1.769743         0.746828
 C         2.448988        -0.802257         1.824107
 C         2.490851         0.534131         1.115666
 O         2.628671         1.774263         1.787014
 H         5.031839        -0.160160        -1.315157
 H         5.199108         1.264312        -0.262191
 H         5.188320        -0.334522         0.414538
 H         2.188929         2.229645        -0.940058
 H         2.227088         0.729654        -2.028572
 H         0.364244         0.520637         0.076876
 H         2.011290        -1.434047        -1.276907
 H         1.498861        -0.913178         2.412297
 H         3.324395        -0.890890         2.503055
 H         2.588796         2.374748         1.095022
