19
Iteration:  4855
 C         4.816338         0.232751        -0.406388
 C         3.289623         0.262106        -0.203484
 C         2.283668         1.151595        -1.068191
 C         1.345267         0.352932        -0.159647
 C         2.240750        -0.813828        -0.335516
 O         2.389159        -1.738223         0.845742
 C         2.658785        -0.719215         1.884617
 C         2.443999         0.584361         1.082583
 O         2.590791         1.729799         1.847512
 H         5.074142         0.808982        -1.320411
 H         5.531086         0.853593         0.280489
 H         5.190005        -0.804124        -0.627448
 H         2.260585         2.263327        -0.863667
 H         2.293883         1.001855        -2.130728
 H         0.206428         0.156584        -0.167309
 H         2.119071        -1.354055        -1.293588
 H         1.972031        -0.850594         2.731944
 H         3.742613        -0.744200         2.186584
 H         2.091155         2.529710         1.564939
