19
Iteration:  3338charge 0 multiplicity 1
 C         4.783293         0.216430        -0.422067
 C         3.293546         0.286075        -0.214507
 C         2.274487         1.221419        -0.914738
 C         1.414716         0.328336         0.051349
 C         2.228059        -0.836911        -0.412829
 O         2.470368        -1.763183         0.758920
 C         2.506861        -0.827013         1.882536
 C         2.525618         0.575778         1.089634
 O         2.621410         1.857812         1.699509
 H         4.978424         0.077108        -1.452618
 H         5.234119         1.217385        -0.373636
 H         5.154536        -0.512386         0.262763
 H         2.433563         2.218309        -0.618610
 H         2.057802         0.981228        -1.990867
 H         0.356746         0.221311         0.060180
 H         2.048541        -1.618910        -1.216653
 H         1.702993        -0.756260         2.631018
 H         3.397753        -1.001567         2.461190
 H         1.959270         2.430870         1.162913
