19
Iteration:  2183
 C         4.801303         0.033722        -0.411016
 C         3.320574         0.143363        -0.314138
 C         2.245636         0.758601        -1.245366
 C         1.439167         0.277257        -0.078764
 C         2.299449        -0.982460        -0.160968
 O         2.548076        -1.540348         1.140960
 C         2.462759        -0.354881         1.951000
 C         2.492015         0.700521         0.946505
 O         2.497157         1.977360         1.634860
 H         5.197846        -0.998615        -0.333889
 H         5.158440         0.345804        -1.365675
 H         5.358166         0.613463         0.365588
 H         1.951326         1.906573        -1.260943
 H         2.136884         0.358241        -2.162522
 H         0.284392         0.185775        -0.018748
 H         2.311946        -1.742385        -0.853744
 H         1.433434        -0.364074         2.503649
 H         3.291607        -0.439771         2.637428
 H         2.529542         2.580625         0.810719
