19
Iteration:  2956charge 0 multiplicity 1
 C         4.740361         0.265124        -0.392753
 C         3.276297         0.340579        -0.277169
 C         2.264670         0.997373        -1.210815
 C         1.324395         0.354921        -0.072685
 C         2.395946        -0.917131        -0.212015
 O         2.427592        -1.705780         0.968613
 C         2.464045        -0.633808         1.916157
 C         2.436223         0.637330         0.992740
 O         2.674413         1.813260         1.692829
 H         4.850830         0.377576        -1.473353
 H         5.363314         0.924898         0.182548
 H         5.057602        -0.756218        -0.296582
 H         2.185075         1.967102        -1.487747
 H         2.264795         0.403134        -2.127247
 H         0.297960         0.379453         0.126502
 H         2.308532        -1.617524        -1.119603
 H         1.638399        -0.555031         2.612510
 H         3.369150        -0.586417         2.576771
 H         3.311005         1.559562         2.473897
