19
Iteration:   314
 C         4.810456         0.175636        -0.402714
 C         3.359352         0.165931        -0.247867
 C         2.289381         0.773334        -1.235690
 C         1.407213         0.176458        -0.161319
 C         2.272789        -1.081197        -0.159927
 O         2.434650        -1.557834         1.186192
 C         2.423069        -0.375817         2.025250
 C         2.429830         0.638517         0.970646
 O         2.690025         2.026877         1.476520
 H         5.199079        -0.511809         0.374542
 H         5.114227        -0.104003        -1.474499
 H         5.067798         1.285720        -0.132831
 H         2.231215         1.981299        -1.117677
 H         2.013767         0.401726        -2.236410
 H         0.371241         0.275283         0.106570
 H         2.245049        -1.924110        -0.756841
 H         1.544387        -0.251114         2.698752
 H         3.344153        -0.398250         2.619525
 H         2.081636         2.412941         0.831140
