19
Iteration:   618
 C         4.810214         0.215368        -0.395502
 C         3.362345         0.173691        -0.262310
 C         2.231709         0.777373        -1.207896
 C         1.429375         0.234968        -0.129823
 C         2.364687        -1.007782        -0.180882
 O         2.357522        -1.593855         1.227406
 C         2.521672        -0.404057         1.983377
 C         2.470345         0.698866         0.921141
 O         2.573638         1.885408         1.546433
 H         5.372944        -0.321942         0.371763
 H         5.161929        -0.185667        -1.389034
 H         5.102581         1.248478        -0.370816
 H         2.174257         1.692934        -1.590843
 H         2.213068         0.123414        -2.162267
 H         0.282448         0.516687        -0.045041
 H         2.149408        -1.674750        -1.050935
 H         1.646063        -0.352739         2.677741
 H         3.462954        -0.223534         2.562334
 H         2.356203         2.593443         0.863636
