19
Iteration:  4461
 C         4.764916         0.355257        -0.243148
 C         3.312290         0.286530        -0.285914
 C         2.328311         1.138979        -1.006945
 C         1.420831         0.397309        -0.061110
 C         2.245293        -0.873321        -0.318985
 O         2.335070        -1.791972         0.747816
 C         2.484006        -0.808763         1.892711
 C         2.480703         0.489329         1.076842
 O         2.733596         1.834048         1.690908
 H         5.147054         0.745745        -1.105729
 H         5.268054         0.935586         0.538308
 H         5.183852        -0.655737        -0.235015
 H         2.232588         2.245786        -0.959070
 H         2.193291         0.954011        -2.074529
 H         0.355942         0.618370         0.129173
 H         2.070088        -1.318463        -1.235835
 H         1.696816        -1.162632         2.548569
 H         3.498317        -0.935433         2.328201
 H         1.928193         2.411350         1.375027
