19
Iteration:  3634charge 0 multiplicity 1
 C         4.816087         0.250170        -0.336897
 C         3.313678         0.250710        -0.229872
 C         2.324857         1.116632        -1.113003
 C         1.377534         0.414342        -0.063757
 C         2.206920        -0.862587        -0.376281
 O         2.344228        -1.712252         0.778179
 C         2.569253        -0.658000         1.906783
 C         2.482531         0.564412         1.024397
 O         2.647454         1.705575         1.859546
 H         5.199268         0.447716        -1.353073
 H         5.101078         0.994799         0.447647
 H         5.262125        -0.748993        -0.014490
 H         2.472169         2.132608        -0.952710
 H         2.218678         0.780502        -2.178556
 H         0.277840         0.579956        -0.012726
 H         2.112417        -1.479490        -1.193735
 H         1.794858        -0.762247         2.707482
 H         3.608900        -0.843636         2.208050
 H         2.099284         2.434496         1.377057
