19
Iteration:  4528charge 0 multiplicity 1
 C         4.804647         0.158607        -0.480215
 C         3.343002         0.283614        -0.271451
 C         2.350358         1.139574        -0.983715
 C         1.418469         0.367065        -0.081222
 C         2.339093        -0.817977        -0.302216
 O         2.434916        -1.689754         0.782822
 C         2.457281        -0.688199         1.890649
 C         2.487865         0.573885         1.047693
 O         2.496038         1.724887         1.871777
 H         5.203124         0.578406        -1.348068
 H         5.399309         0.749763         0.256332
 H         4.931978        -0.917125        -0.465713
 H         2.265083         2.263702        -0.770447
 H         2.359193         1.113450        -2.099056
 H         0.284461         0.372892        -0.068046
 H         2.211639        -1.412029        -1.204373
 H         1.576144        -0.674537         2.578783
 H         3.412439        -0.932322         2.444333
 H         2.158189         2.434232         1.346176
