19
Iteration:  1046charge 0 multiplicity 1
 C         4.865600         0.175041        -0.370032
 C         3.358370         0.151700        -0.265681
 C         2.213728         0.862005        -1.302836
 C         1.363429         0.158405        -0.128574
 C         2.279231        -1.025339        -0.105099
 O         2.430408        -1.629545         1.177406
 C         2.532172        -0.426538         1.988640
 C         2.439745         0.739012         0.906466
 O         2.568495         1.976886         1.526429
 H         5.292230        -0.701032         0.179316
 H         5.128585         0.248520        -1.428246
 H         5.297567         0.968289         0.368658
 H         2.330136         1.944364        -1.217450
 H         2.038935         0.416644        -2.329526
 H         0.225564         0.082855         0.174874
 H         2.158514        -1.835844        -0.880594
 H         1.887281        -0.182401         2.905893
 H         3.563233        -0.447520         2.471563
 H         2.569783         2.682073         0.795470
