19
Iteration:  2893
 C         4.823100         0.197202        -0.422862
 C         3.301741         0.271577        -0.236918
 C         2.313344         1.144364        -1.025708
 C         1.378993         0.287264        -0.029104
 C         2.325784        -0.885266        -0.314500
 O         2.326318        -1.644502         0.987028
 C         2.628906        -0.722638         2.021577
 C         2.468755         0.513656         1.094034
 O         2.468135         1.908007         1.467577
 H         5.134504         1.122972        -0.876929
 H         5.570031        -0.087070         0.288527
 H         4.819832        -0.538640        -1.235628
 H         2.354735         2.181010        -0.985048
 H         2.297328         0.656285        -2.051192
 H         0.312892         0.376260        -0.035737
 H         2.197950        -1.641068        -1.068077
 H         1.790731        -0.871072         2.726658
 H         3.576726        -0.932778         2.457930
 H         3.438017         2.192758         1.442456
