19
Iteration:  4326
 C         4.832582         0.222055        -0.432055
 C         3.289949         0.298115        -0.148322
 C         2.372540         1.246797        -0.962303
 C         1.359828         0.295303        -0.047670
 C         2.294988        -0.847696        -0.387242
 O         2.406604        -1.721618         0.736981
 C         2.443613        -0.780382         1.954798
 C         2.436348         0.555559         1.088188
 O         2.594940         1.768155         1.755249
 H         4.916778        -0.324757        -1.389026
 H         5.117334         1.192610        -0.537603
 H         5.358483        -0.228958         0.344846
 H         2.586548         2.286973        -0.822379
 H         2.332789         1.202727        -2.082694
 H         0.279976         0.353709         0.077630
 H         2.449506        -1.311200        -1.453596
 H         1.593066        -0.904718         2.651961
 H         3.375309        -1.127269         2.413987
 H         2.707354         2.575858         1.114322
