19
Iteration:  2905
 C         4.784940         0.245674        -0.491591
 C         3.334292         0.259615        -0.195933
 C         2.306609         1.052560        -1.057189
 C         1.456154         0.355993        -0.056458
 C         2.285978        -0.937002        -0.244253
 O         2.343097        -1.723774         0.965150
 C         2.546299        -0.701339         1.976450
 C         2.507063         0.603770         1.053149
 O         2.484036         1.867096         1.529581
 H         5.119650         1.106626        -1.048120
 H         5.203844         0.188799         0.535083
 H         5.196087        -0.649061        -1.027705
 H         2.347870         2.142347        -0.897390
 H         2.085806         0.963221        -2.161404
 H         0.378554         0.355067         0.205301
 H         2.184202        -1.504088        -1.115948
 H         1.821009        -0.569084         2.796303
 H         3.467151        -0.823151         2.493455
 H         3.399660         2.284467         1.465989
