19
Iteration:  2066charge 0 multiplicity 1
 C         4.808262         0.197297        -0.365915
 C         3.313764         0.219078        -0.277831
 C         2.220286         0.825557        -1.285743
 C         1.309631         0.236453        -0.194051
 C         2.282232        -1.052480        -0.145071
 O         2.485683        -1.592964         1.132133
 C         2.500703        -0.456575         1.995212
 C         2.327537         0.695007         0.987555
 O         2.744216         1.957466         1.604967
 H         5.279988         0.004348         0.628274
 H         5.162458        -0.715231        -0.947302
 H         5.278858         1.200897        -0.684156
 H         2.090211         1.857002        -1.449600
 H         2.201079         0.085027        -2.225987
 H         0.281142         0.120267        -0.038732
 H         2.186227        -1.875839        -0.918190
 H         1.598163        -0.463542         2.603222
 H         3.404455        -0.360984         2.682117
 H         2.796546         2.693534         0.966278
