19
Iteration:  4187
 C         4.823743         0.143124        -0.502240
 C         3.309369         0.340527        -0.217801
 C         2.337028         1.142914        -1.049586
 C         1.348656         0.334967        -0.171850
 C         2.356607        -0.812133        -0.335238
 O         2.412660        -1.648711         0.794965
 C         2.444245        -0.684585         1.918628
 C         2.383779         0.567138         1.050505
 O         2.553183         1.716175         1.952292
 H         5.091804         0.330836        -1.576351
 H         5.526565         0.560626         0.358777
 H         5.210220        -0.906356        -0.296032
 H         2.387605         2.230460        -0.815288
 H         2.421534         1.048721        -2.156327
 H         0.269491         0.283065        -0.110287
 H         2.600289        -1.377165        -1.229935
 H         1.608638        -0.963160         2.572485
 H         3.418153        -0.715430         2.469100
 H         3.064346         2.388301         1.497608
