19
Iteration:   555charge 0 multiplicity 1
 C         4.824256         0.040409        -0.328097
 C         3.279470         0.182332        -0.307252
 C         2.293200         0.898391        -1.207026
 C         1.358870         0.166698        -0.102005
 C         2.309295        -0.914101        -0.156642
 O         2.503791        -1.578074         1.184682
 C         2.559607        -0.425845         2.029566
 C         2.453540         0.646085         0.949186
 O         2.486970         1.963063         1.410998
 H         5.152551        -0.827801         0.193308
 H         5.154411         0.028230        -1.366178
 H         5.322748         0.930816         0.186919
 H         2.383185         2.049166        -1.131773
 H         2.290558         0.484959        -2.275565
 H         0.275988         0.141826         0.146977
 H         2.117480        -1.591683        -0.908087
 H         1.695377        -0.397748         2.723913
 H         3.511023        -0.431699         2.599501
 H         2.408361         2.672710         0.742542
