19
Iteration:   323charge 0 multiplicity 1
 C         4.846888         0.176470        -0.396943
 C         3.311212         0.160774        -0.281466
 C         2.255393         0.827690        -1.193081
 C         1.378543         0.204445        -0.107080
 C         2.336050        -1.023162        -0.137126
 O         2.452822        -1.651385         1.238683
 C         2.405357        -0.400041         2.057607
 C         2.425638         0.674189         0.949970
 O         2.671021         1.984570         1.390868
 H         5.431048        -0.551560         0.227300
 H         5.114032        -0.050509        -1.472394
 H         5.350467         1.096003        -0.221314
 H         2.306108         1.952051        -1.281714
 H         2.200314         0.490216        -2.248896
 H         0.268462         0.238861        -0.159174
 H         2.127524        -1.713199        -0.954024
 H         1.435845        -0.309692         2.577263
 H         3.200013        -0.294409         2.772764
 H         2.185292         2.708768         0.965498
