19
Iteration:  3836charge 0 multiplicity 1
 C         4.829851         0.160216        -0.382568
 C         3.295092         0.291460        -0.291472
 C         2.310410         1.151163        -1.152136
 C         1.444797         0.405059        -0.079679
 C         2.275248        -0.832820        -0.315853
 O         2.413934        -1.647428         0.801659
 C         2.443266        -0.642511         1.834438
 C         2.502488         0.599040         0.993923
 O         2.577077         1.610008         2.002185
 H         5.152395        -0.479883        -1.243214
 H         5.284015         1.125246        -0.583725
 H         5.368388        -0.060002         0.498613
 H         2.350700         2.225249        -0.980496
 H         2.114355         0.795501        -2.089176
 H         0.413336         0.247063         0.073163
 H         2.076222        -1.433919        -1.258150
 H         1.563888        -0.783169         2.468661
 H         3.358720        -0.752745         2.444479
 H         2.352663         2.473947         1.507340
