19
Iteration:  2764charge 0 multiplicity 1
 C         4.851447         0.284307        -0.446219
 C         3.336273         0.190036        -0.333112
 C         2.330787         1.030311        -1.073045
 C         1.424604         0.315767        -0.019019
 C         2.232740        -1.012943        -0.217298
 O         2.272985        -1.759824         1.050796
 C         2.589945        -0.628060         1.961130
 C         2.574206         0.659182         0.999109
 O         2.464477         1.926068         1.515199
 H         5.405736         0.008430         0.488039
 H         5.100939        -0.288598        -1.369477
 H         5.020824         1.411716        -0.641954
 H         2.381130         2.086295        -0.772872
 H         2.142327         0.854933        -2.177821
 H         0.349981         0.429395         0.112050
 H         2.079607        -1.646127        -1.018752
 H         1.769914        -0.704349         2.699981
 H         3.613858        -0.843643         2.501736
 H         3.348859         2.307899         1.635523
