19
Iteration:  1193
 C         4.831002         0.195660        -0.343825
 C         3.222382         0.221895        -0.288406
 C         2.221349         0.845430        -1.336041
 C         1.319204         0.194546        -0.129529
 C         2.354859        -1.036055        -0.069954
 O         2.497838        -1.623185         1.215058
 C         2.477600        -0.453083         2.016004
 C         2.507920         0.696866         0.897060
 O         2.659978         1.925366         1.514174
 H         5.263421        -0.376456         0.546226
 H         5.207943        -0.324403        -1.267812
 H         5.184244         1.199877        -0.437072
 H         2.132452         1.904068        -1.231940
 H         2.075650         0.367054        -2.382707
 H         0.164580         0.357030         0.046860
 H         2.119677        -1.648925        -1.019623
 H         1.511557        -0.252129         2.431943
 H         3.279010        -0.358447         2.736046
 H         2.436378         2.656047         0.947687
