19
Iteration:   563charge 0 multiplicity 1
 C         4.814192         0.070701        -0.306391
 C         3.284117         0.194222        -0.238953
 C         2.272669         0.920630        -1.175909
 C         1.332247         0.206450        -0.073845
 C         2.321593        -1.025410        -0.129346
 O         2.530727        -1.517692         1.111062
 C         2.508112        -0.406218         2.034132
 C         2.495829         0.669668         0.962520
 O         2.522821         1.906689         1.372231
 H         5.098805        -0.889368         0.149932
 H         5.097456        -0.029932        -1.406753
 H         5.362837         0.868552         0.087803
 H         2.454654         1.940264        -1.196551
 H         2.143197         0.497600        -2.273608
 H         0.132051         0.279236         0.050532
 H         2.275775        -1.759670        -1.007134
 H         1.632086        -0.548494         2.725857
 H         3.423005        -0.229796         2.637109
 H         2.284756         2.436894         0.610932
