19
Iteration:   241charge 0 multiplicity 1
 C         4.754232         0.070139        -0.406032
 C         3.303633         0.154185        -0.282440
 C         2.252647         0.949120        -1.198298
 C         1.478480         0.223287        -0.079320
 C         2.359633        -1.077589        -0.130449
 O         2.452333        -1.651137         1.220244
 C         2.452142        -0.415361         2.012073
 C         2.489469         0.708494         0.983290
 O         2.488498         2.030516         1.365070
 H         5.048204        -0.328609         0.514009
 H         5.049683        -0.639123        -1.150425
 H         5.142913         1.093415        -0.583660
 H         2.305450         2.003670        -1.217287
 H         2.152471         0.575905        -2.209237
 H         0.394296         0.275779         0.081262
 H         2.507105        -1.804597        -0.968576
 H         1.678220        -0.387593         2.804192
 H         3.443989        -0.325234         2.494847
 H         3.238953         2.466080         1.059627
