19
Iteration:   278
 C         4.925233         0.196588        -0.355143
 C         3.311358         0.217388        -0.260228
 C         2.272922         0.782614        -1.326466
 C         1.404824         0.325138        -0.169152
 C         2.237981        -1.035911        -0.080359
 O         2.336747        -1.620586         1.268694
 C         2.605724        -0.402760         1.977337
 C         2.400733         0.639919         0.928851
 O         2.527610         1.930718         1.495722
 H         5.300883        -0.332994         0.597508
 H         5.353898        -0.421019        -1.160827
 H         5.405139         1.111010        -0.352848
 H         2.156179         1.842293        -1.588269
 H         1.970393         0.215480        -2.258543
 H         0.302245         0.414908         0.035689
 H         2.234019        -1.836806        -0.886933
 H         2.154286        -0.472475         2.955293
 H         3.668067        -0.299175         2.068064
 H         2.813318         2.488501         0.765050
