19
Iteration:  4002charge 0 multiplicity 1
 C         4.810848         0.227383        -0.447593
 C         3.297123         0.289254        -0.221752
 C         2.354987         1.269776        -0.918466
 C         1.390132         0.389098        -0.139686
 C         2.263617        -0.908511        -0.326104
 O         2.365867        -1.736206         0.813746
 C         2.569533        -0.778817         1.923365
 C         2.503485         0.537155         1.089777
 O         2.494096         1.744100         1.736741
 H         5.072049         0.367822        -1.504753
 H         5.239531         0.967304         0.306076
 H         5.274091        -0.675207         0.000317
 H         2.597898         2.423707        -0.793298
 H         2.473793         1.182609        -2.012159
 H         0.291845         0.653939        -0.156492
 H         2.266554        -1.435124        -1.294278
 H         1.604451        -0.953485         2.447305
 H         3.533178        -1.045206         2.499505
 H         2.705982         2.417960         1.161860
