19
Iteration:  3695
 C         4.759041         0.187931        -0.461157
 C         3.324569         0.302199        -0.309781
 C         2.384589         1.229781        -1.013485
 C         1.397308         0.351456        -0.083386
 C         2.260121        -0.914587        -0.290690
 O         2.465759        -1.675677         0.829638
 C         2.424691        -0.687930         1.847760
 C         2.462552         0.559082         1.034913
 O         2.553145         1.656257         1.874124
 H         5.201740        -0.586875        -1.162771
 H         5.286922         1.166300        -0.704769
 H         5.141192         0.065275         0.541257
 H         2.528244         2.344889        -0.578848
 H         2.211278         1.389824        -2.066002
 H         0.349166         0.373573        -0.218406
 H         1.957886        -1.471505        -1.294550
 H         1.571328        -0.597949         2.499257
 H         3.266436        -0.803581         2.532202
 H         3.129670         2.426995         1.478379
