19
Iteration:  4956
 C         4.900818         0.436561        -0.460321
 C         3.361181         0.366991        -0.290550
 C         2.208061         1.059970        -1.176404
 C         1.455357         0.316178        -0.044330
 C         2.196781        -0.918675        -0.320761
 O         2.355968        -1.734829         0.811413
 C         2.449539        -0.703382         1.880941
 C         2.516827         0.541018         1.043354
 O         2.628660         1.689528         1.977257
 H         5.247546        -0.276829        -1.300423
 H         5.207207         1.482136        -0.760132
 H         5.350704         0.004673         0.435537
 H         2.080062         2.057733        -0.858153
 H         2.074459         0.781311        -2.231704
 H         0.414972         0.534988         0.118503
 H         1.888985        -1.394865        -1.239567
 H         1.575768        -0.778208         2.482142
 H         3.353083        -0.936254         2.485396
 H         3.093196         2.400270         1.645558
