19
Iteration:  2416charge 0 multiplicity 1
 C         4.852871         0.228701        -0.312559
 C         3.328736         0.231403        -0.316279
 C         2.245229         0.882574        -1.259887
 C         1.352998         0.271647        -0.131111
 C         2.254912        -1.048141        -0.218865
 O         2.385785        -1.624751         1.148835
 C         2.564712        -0.490467         2.003767
 C         2.477550         0.641546         0.949727
 O         2.629734         1.891010         1.600509
 H         5.124739         1.270326        -0.410169
 H         5.334035        -0.132604         0.636397
 H         5.138242        -0.316886        -1.215912
 H         2.184165         1.996807        -1.372915
 H         2.082682         0.569450        -2.275460
 H         0.308531         0.422788        -0.126315
 H         1.970967        -1.989212        -0.853150
 H         1.719534        -0.367712         2.728052
 H         3.566165        -0.528402         2.473446
 H         2.504271         2.549694         0.830008
