19
Iteration:  4287charge 0 multiplicity 1
 C         4.840441         0.308291        -0.238005
 C         3.319995         0.225860        -0.364064
 C         2.219897         1.138268        -1.174242
 C         1.388865         0.372510        -0.115808
 C         2.219206        -0.848755        -0.385805
 O         2.388740        -1.703050         0.793778
 C         2.469811        -0.656534         1.887647
 C         2.471298         0.606352         1.007617
 O         2.735209         1.625287         1.916712
 H         5.469388         0.326805        -1.146242
 H         5.226883         1.220220         0.508303
 H         5.262408        -0.650561         0.322578
 H         1.982299         2.278008        -1.096979
 H         1.962195         0.739199        -2.157685
 H         0.370723         0.377493         0.308745
 H         2.151338        -1.454799        -1.231314
 H         1.617462        -0.650449         2.601358
 H         3.438712        -0.824666         2.412564
 H         2.488350         2.464980         1.670657
