19
Iteration:  2386
 C         4.827879         0.133442        -0.348927
 C         3.294425         0.194077        -0.331459
 C         2.305299         0.854071        -1.237851
 C         1.357792         0.265969        -0.108465
 C         2.327920        -1.022468        -0.212619
 O         2.322916        -1.564497         1.127562
 C         2.662755        -0.439808         1.985691
 C         2.485158         0.659912         0.929643
 O         2.503648         1.906201         1.653825
 H         5.064660         1.080323         0.154217
 H         5.419850        -0.748820        -0.003121
 H         5.125552         0.196087        -1.372066
 H         2.297824         1.944692        -1.447951
 H         2.249569         0.347417        -2.274825
 H         0.296786         0.302535        -0.024034
 H         2.087389        -1.883051        -0.898000
 H         1.980822        -0.302633         2.828191
 H         3.769526        -0.496069         2.322282
 H         2.445563         2.694951         1.082780
