19
Iteration:   804
 C         4.841896         0.216200        -0.446846
 C         3.320410         0.281735        -0.258373
 C         2.276616         0.821901        -1.133643
 C         1.396525         0.181502        -0.140664
 C         2.256875        -1.069830        -0.120752
 O         2.429321        -1.623871         1.177661
 C         2.492284        -0.405039         2.055107
 C         2.481639         0.660432         0.957313
 O         2.585544         1.953541         1.430594
 H         5.139770        -0.732217        -0.023547
 H         5.186309         0.270113        -1.528532
 H         5.314162         1.026891         0.124888
 H         2.198073         1.930755        -1.217686
 H         2.127593         0.544655        -2.217504
 H         0.239362         0.136340        -0.058112
 H         2.129457        -1.864391        -0.774720
 H         1.545179        -0.522126         2.577496
 H         3.346675        -0.465430         2.720688
 H         2.845393         2.504891         0.698935
