19
Iteration:  4108charge 0 multiplicity 1
 C         4.797172         0.327725        -0.285933
 C         3.288510         0.291785        -0.196502
 C         2.418801         1.318328        -0.982841
 C         1.323732         0.312752        -0.106493
 C         2.320348        -0.835757        -0.333985
 O         2.251079        -1.807076         0.751396
 C         2.559174        -0.777178         1.888234
 C         2.443855         0.465502         1.065382
 O         2.714846         1.784744         1.727166
 H         5.162286        -0.464849        -1.020883
 H         5.091540         1.263106        -0.761851
 H         5.248220         0.072348         0.635894
 H         2.082382         2.279952        -0.786971
 H         2.402651         0.970220        -2.025274
 H         0.265176         0.403069        -0.195863
 H         2.148355        -1.393879        -1.325708
 H         1.810830        -0.837181         2.646625
 H         3.477508        -1.222514         2.218275
 H         2.142848         2.386522         1.359058
