19
Iteration:   459charge 0 multiplicity 1
 C         4.829454         0.214199        -0.389888
 C         3.264986         0.195744        -0.273874
 C         2.326039         0.855996        -1.157028
 C         1.413646         0.213032        -0.111969
 C         2.296539        -1.056470        -0.168515
 O         2.473073        -1.561070         1.152119
 C         2.362552        -0.479229         2.127586
 C         2.510584         0.602846         0.950449
 O         2.646291         1.966373         1.362199
 H         5.133377        -0.164111         0.587754
 H         4.962605        -0.529122        -1.143492
 H         5.330502         1.256064        -0.639529
 H         2.136295         2.001335        -1.186329
 H         2.240089         0.565383        -2.198724
 H         0.400808         0.261811         0.148302
 H         2.179915        -1.921603        -0.848271
 H         1.382700        -0.367962         2.595879
 H         3.151136        -0.535329         2.901678
 H         2.239884         2.740058         0.805729
