19
Iteration:  2202charge 0 multiplicity 1
 C         4.806335         0.069901        -0.388706
 C         3.261913         0.281436        -0.328344
 C         2.240216         0.873557        -1.286176
 C         1.354072         0.291911        -0.073497
 C         2.349323        -1.010475        -0.116725
 O         2.585877        -1.643966         1.156820
 C         2.391411        -0.530029         2.068940
 C         2.462720         0.718206         0.991679
 O         2.590852         2.009717         1.471707
 H         5.037318        -1.038885        -0.231833
 H         5.229381         0.406146        -1.414538
 H         5.332447         0.694885         0.358865
 H         2.541737         1.819281        -1.535344
 H         2.129698         0.158306        -2.144253
 H         0.201337         0.222822         0.111070
 H         2.271178        -1.801287        -0.885698
 H         1.448566        -0.615410         2.703673
 H         3.271774        -0.460781         2.737295
 H         2.425475         2.781038         0.816764
