19
Iteration:  1224
 C         4.831379         0.154799        -0.444789
 C         3.278274         0.181705        -0.296551
 C         2.308026         0.861070        -1.186630
 C         1.359042         0.162663        -0.054192
 C         2.363745        -1.012762        -0.123714
 O         2.465672        -1.571488         1.166502
 C         2.461475        -0.448381         2.087786
 C         2.451585         0.670380         0.977991
 O         2.572320         1.968934         1.416008
 H         5.304908        -0.674662         0.101983
 H         5.083378         0.064236        -1.476382
 H         5.199329         1.023625         0.022210
 H         2.384624         1.882916        -1.163719
 H         2.160312         0.543004        -2.334432
 H         0.167723         0.231338        -0.038351
 H         2.256229        -1.702551        -1.025871
 H         1.463471        -0.401862         2.613960
 H         3.277638        -0.357732         2.847276
 H         2.558805         2.544605         0.594810
