19
Iteration:  2700
 C         4.708473         0.096236        -0.352959
 C         3.268219         0.246396        -0.395004
 C         2.248700         1.015435        -1.174237
 C         1.378035         0.267654        -0.053525
 C         2.221661        -0.954992        -0.231097
 O         2.576146        -1.587414         1.016842
 C         2.533811        -0.542419         1.995333
 C         2.556386         0.625860         0.995652
 O         2.548027         1.898880         1.564972
 H         5.105779        -0.904153        -0.348189
 H         5.153958         0.544463        -1.256252
 H         5.267948         0.511101         0.502602
 H         2.004388         2.091980        -1.119736
 H         2.082191         0.738239        -2.264644
 H         0.298802         0.266197         0.067241
 H         2.275904        -1.753533        -1.101109
 H         1.573921        -0.523819         2.552108
 H         3.270082        -0.654119         2.787333
 H         3.102772         2.000507         2.427272
