19
Iteration:   587charge 0 multiplicity 1
 C         4.783556         0.091807        -0.342738
 C         3.278208         0.157600        -0.324369
 C         2.250928         0.920518        -1.208862
 C         1.372431         0.198943        -0.110263
 C         2.371225        -1.001142        -0.140804
 O         2.563152        -1.685296         1.223967
 C         2.435777        -0.506644         2.030250
 C         2.421079         0.732713         0.941482
 O         2.611527         2.045610         1.410309
 H         5.141539        -0.710116         0.247413
 H         5.209434        -0.055642        -1.343857
 H         5.140109         1.108857         0.009811
 H         2.312577         2.038562        -1.164406
 H         2.167693         0.556760        -2.322235
 H         0.215108         0.259264         0.044895
 H         2.132117        -1.600957        -0.956107
 H         1.481132        -0.552971         2.621397
 H         3.256030        -0.301140         2.755540
 H         2.303104         2.709886         0.800118
