19
Iteration:  1671charge 0 multiplicity 1
 C         4.837862         0.147603        -0.397493
 C         3.305211         0.183315        -0.258395
 C         2.262912         0.900616        -1.146815
 C         1.375354         0.116754        -0.169375
 C         2.349979        -1.009976        -0.111937
 O         2.397388        -1.611517         1.141048
 C         2.530381        -0.451139         2.036676
 C         2.427287         0.696649         1.025330
 O         2.551355         2.012191         1.421943
 H         5.270286        -0.747281         0.051037
 H         5.054119         0.062092        -1.412761
 H         5.359782         1.010293         0.005030
 H         2.236325         2.078401        -1.174078
 H         2.297546         0.509353        -2.248873
 H         0.286168         0.197216        -0.000993
 H         2.336525        -1.688390        -0.936938
 H         1.737732        -0.382971         2.752030
 H         3.463971        -0.590483         2.624085
 H         2.808106         2.482479         0.577209
