19
Iteration:  4788
 C         4.810947         0.420085        -0.427195
 C         3.314892         0.274511        -0.299717
 C         2.285437         1.103330        -0.949293
 C         1.350867         0.359302         0.033337
 C         2.354444        -0.867120        -0.320552
 O         2.391120        -1.781620         0.806932
 C         2.428952        -0.754001         1.885854
 C         2.456962         0.517615         1.052506
 O         2.658776         1.791443         1.698059
 H         5.160341         1.171819        -1.110152
 H         5.105698         0.656406         0.659634
 H         5.053952        -0.647684        -0.687928
 H         2.455851         2.187347        -0.733469
 H         2.096590         0.874015        -1.985872
 H         0.235075         0.223842         0.248093
 H         2.119413        -1.422470        -1.258596
 H         1.501580        -0.867926         2.456664
 H         3.309192        -0.963070         2.510016
 H         3.237819         2.323186         1.094350
