19
Iteration:  3122
 C         4.737329         0.256126        -0.436813
 C         3.308340         0.368951        -0.179368
 C         2.291594         1.132787        -1.004408
 C         1.413697         0.286049        -0.084091
 C         2.264708        -0.933670        -0.310700
 O         2.328931        -1.768864         0.890539
 C         2.622698        -0.732982         1.932258
 C         2.513819         0.590308         1.102878
 O         2.541900         1.883317         1.620552
 H         5.370903         0.016703         0.398475
 H         4.905976        -0.567831        -1.112767
 H         5.173153         1.230341        -0.781823
 H         2.259913         2.162338        -0.954005
 H         2.329490         0.913135        -2.069859
 H         0.276025         0.373666         0.014454
 H         2.117169        -1.553481        -1.201069
 H         1.851397        -0.913550         2.631570
 H         3.643743        -0.992078         2.190716
 H         3.406439         2.231998         1.446217
