19
Iteration:  1377
 C         4.848613         0.199600        -0.419654
 C         3.337884         0.227343        -0.328515
 C         2.306164         0.758840        -1.244802
 C         1.350100         0.149719        -0.125522
 C         2.273168        -0.965778        -0.100400
 O         2.333711        -1.539508         1.173282
 C         2.570621        -0.467682         1.993813
 C         2.497884         0.682713         1.024834
 O         2.512940         1.935055         1.543408
 H         5.419187         0.030954         0.527231
 H         5.275274        -0.420663        -1.208253
 H         5.049295         1.170142        -0.876740
 H         2.458054         1.902254        -1.217351
 H         2.462589         0.256513        -2.280365
 H         0.330182         0.162530        -0.066022
 H         2.354323        -1.888327        -0.867120
 H         1.732460        -0.391797         2.739919
 H         3.603771        -0.404367         2.415854
 H         2.648620         2.583724         0.752759
