19
Iteration:  1771
 C         4.841311         0.115880        -0.418913
 C         3.357027         0.244585        -0.213187
 C         2.377508         0.941689        -1.209754
 C         1.341483         0.184146        -0.085571
 C         2.308302        -1.059262        -0.143830
 O         2.346797        -1.618638         1.160562
 C         2.655535        -0.454163         2.024593
 C         2.425812         0.639735         0.967138
 O         2.464888         1.984071         1.461451
 H         5.420141        -0.224328         0.439363
 H         5.019772        -0.481441        -1.264059
 H         5.211331         1.053235        -0.666967
 H         2.195145         2.070547        -1.193161
 H         2.339510         0.614662        -2.266089
 H         0.308857         0.208024        -0.002157
 H         1.909452        -1.684032        -0.907740
 H         1.950572        -0.417453         2.805188
 H         3.696395        -0.454726         2.379351
 H         2.377338         2.462556         0.660486
