19
Iteration:  3670
 C         4.873639         0.200293        -0.421981
 C         3.350406         0.278758        -0.189814
 C         2.232962         1.237290        -0.947741
 C         1.399655         0.375283        -0.078930
 C         2.340276        -0.865205        -0.362582
 O         2.325137        -1.772887         0.761600
 C         2.438862        -0.755524         1.959261
 C         2.511243         0.517954         1.081444
 O         2.583049         1.786774         1.722906
 H         5.168233        -0.285832        -1.475360
 H         5.443742         1.153949        -0.409013
 H         5.367148        -0.398666         0.456444
 H         2.222874         2.404701        -0.789610
 H         2.094772         1.249622        -2.061738
 H         0.290633         0.477720         0.139492
 H         2.353597        -1.200008        -1.437338
 H         1.744907        -0.762649         2.815698
 H         3.421491        -0.969762         2.440849
 H         2.695153         2.574900         1.067328
