19
Iteration:  1292
 C         4.817245         0.089698        -0.346116
 C         3.302101         0.261070        -0.302242
 C         2.225090         0.812455        -1.275744
 C         1.413401         0.264390        -0.163735
 C         2.333376        -1.035029        -0.101433
 O         2.437669        -1.656049         1.211860
 C         2.635526        -0.363106         1.980585
 C         2.413231         0.733380         0.907689
 O         2.502396         1.947355         1.530993
 H         5.083061        -0.909309         0.073031
 H         5.137504         0.002932        -1.413850
 H         5.384748         0.832116         0.166126
 H         2.366920         1.831395        -1.356133
 H         2.307502         0.309695        -2.341236
 H         0.131296         0.318366         0.115917
 H         2.427394        -1.936920        -0.832758
 H         1.753882        -0.277701         2.676594
 H         3.615026        -0.344710         2.490598
 H         2.173466         2.707467         1.126870
