19
Iteration:  3155
 C         4.851690         0.167078        -0.389006
 C         3.301228         0.251800        -0.391599
 C         2.215596         1.116640        -1.103265
 C         1.421890         0.405766        -0.029252
 C         2.212679        -0.913511        -0.307438
 O         2.424036        -1.722243         0.911381
 C         2.646552        -0.567465         1.855127
 C         2.529691         0.664369         1.009079
 O         2.473226         1.743199         1.756007
 H         5.155052         0.395318         0.634688
 H         5.306854        -0.764000        -0.706810
 H         5.321987         0.890936        -1.138894
 H         2.282791         2.152580        -0.983057
 H         1.968594         0.695256        -2.083956
 H         0.300736         0.618056         0.203518
 H         1.820608        -1.572911        -1.066231
 H         1.971874        -0.644996         2.719889
 H         3.640058        -0.711420         2.379829
 H         2.822703         1.454427         2.603710
