19
Iteration:  3753charge 0 multiplicity 1
 C         4.866824         0.228807        -0.335152
 C         3.279551         0.327184        -0.270760
 C         2.306663         1.238338        -1.048374
 C         1.435492         0.364549        -0.072829
 C         2.290918        -0.923384        -0.415871
 O         2.270390        -1.709763         0.817822
 C         2.552808        -0.750684         1.812202
 C         2.525937         0.539099         1.048153
 O         2.607745         1.731536         1.892890
 H         5.267670        -0.681282        -0.731246
 H         5.170074         1.085961        -0.977200
 H         5.197738         0.194812         0.715579
 H         2.360800         2.315074        -0.889022
 H         2.051583         1.103249        -2.165761
 H         0.315773         0.431943         0.084570
 H         2.139196        -1.488342        -1.310618
 H         1.715384        -0.656564         2.554063
 H         3.515024        -1.021193         2.312074
 H         2.221832         2.417354         1.404074
