19
Iteration:  4201charge 0 multiplicity 1
 C         4.859215         0.145404        -0.440554
 C         3.368069         0.342204        -0.260112
 C         2.298519         1.282543        -1.013305
 C         1.454714         0.337018        -0.126770
 C         2.321182        -0.921008        -0.356548
 O         2.391987        -1.701517         0.864138
 C         2.449558        -0.722183         1.846596
 C         2.506046         0.588868         1.088165
 O         2.476389         1.721779         1.854290
 H         5.115605         0.583931        -1.372641
 H         5.564633         0.677051         0.191477
 H         4.870269        -0.968968        -0.561759
 H         2.264214         2.364414        -0.748593
 H         2.099893         1.086416        -2.041133
 H         0.327368         0.310524        -0.112661
 H         2.041901        -1.570425        -1.136616
 H         1.509245        -0.605385         2.462646
 H         3.297612        -0.980065         2.535872
 H         3.029853         2.482716         1.417886
