19
Iteration:  3712
 C         4.763902         0.204372        -0.397747
 C         3.315835         0.267976        -0.266673
 C         2.295867         1.188251        -1.124125
 C         1.390050         0.479385        -0.142788
 C         2.289636        -0.854461        -0.416905
 O         2.449235        -1.744338         0.833519
 C         2.474206        -0.706673         1.880256
 C         2.438806         0.574711         1.050853
 O         2.575456         1.704096         2.008075
 H         5.145120        -0.593067        -1.083491
 H         5.158547         0.965749        -1.041333
 H         5.433658         0.017358         0.500964
 H         2.393420         2.234985        -1.204925
 H         2.335145         0.872778        -2.198625
 H         0.284114         0.615280         0.079379
 H         2.334951        -1.602504        -1.150389
 H         1.573621        -1.018456         2.480734
 H         3.330474        -0.789337         2.600907
 H         3.094056         2.437679         1.538436
