19
Iteration:  1339
 C         4.805972         0.181174        -0.367893
 C         3.297271         0.173076        -0.285935
 C         2.286405         0.905245        -1.183787
 C         1.346403         0.208144        -0.050925
 C         2.333939        -1.027678        -0.110671
 O         2.496666        -1.633379         1.192530
 C         2.418881        -0.462311         2.006023
 C         2.479013         0.636501         0.912653
 O         2.635197         1.977595         1.375381
 H         5.237217        -0.186566         0.587583
 H         5.243749        -0.460528        -1.192692
 H         5.158625         1.291550        -0.402642
 H         2.314933         2.086685        -1.173335
 H         2.163892         0.642678        -2.209802
 H         0.170708         0.260004         0.036128
 H         2.200159        -1.760571        -0.819178
 H         1.520430        -0.499612         2.605212
 H         3.292855        -0.408673         2.690323
 H         2.084316         2.500509         0.733438
