19
Iteration:   957
 C         4.811680         0.113786        -0.467356
 C         3.302382         0.197697        -0.228532
 C         2.228229         0.793469        -1.262584
 C         1.366180         0.268921        -0.134563
 C         2.329176        -0.995340        -0.150483
 O         2.582149        -1.612638         1.187173
 C         2.395646        -0.364193         1.984326
 C         2.433795         0.668781         0.925505
 O         2.609425         1.924822         1.591038
 H         5.058883        -0.531624         0.382018
 H         5.207084        -0.376569        -1.425590
 H         5.272690         1.149984        -0.332490
 H         2.256939         1.916742        -1.372024
 H         2.026303         0.210420        -2.174493
 H         0.212917         0.363932        -0.046048
 H         2.456996        -1.757677        -0.905422
 H         1.485437        -0.222692         2.625530
 H         3.205629        -0.367593         2.736970
 H         2.457304         2.767170         1.045013
