19
Iteration:  1831charge 0 multiplicity 1
 C         4.782859         0.066379        -0.411179
 C         3.244537         0.302455        -0.222917
 C         2.246236         0.759987        -1.225197
 C         1.324656         0.294509        -0.198278
 C         2.483863        -1.032976        -0.135046
 O         2.500979        -1.598368         1.144386
 C         2.458601        -0.402512         1.954005
 C         2.430509         0.703007         0.973069
 O         2.634474         1.950356         1.616553
 H         5.393271        -0.261886         0.459357
 H         4.968929        -0.681022        -1.259575
 H         5.243879         1.116659        -0.728108
 H         2.261895         1.930394        -1.476577
 H         2.013556         0.190566        -2.139047
 H         0.154456         0.190630        -0.120851
 H         2.262733        -1.746230        -0.947931
 H         1.463737        -0.466438         2.514192
 H         3.245379        -0.473903         2.706377
 H         2.281847         2.629396         0.987787
