19
Iteration:  1837charge 0 multiplicity 1
 C         4.744884         0.100735        -0.385015
 C         3.249360         0.240989        -0.285637
 C         2.250776         0.776620        -1.257614
 C         1.341670         0.311855        -0.161522
 C         2.499995        -1.049551        -0.154668
 O         2.469524        -1.601411         1.140317
 C         2.495248        -0.392203         1.995458
 C         2.402288         0.730802         1.003772
 O         2.639482         1.930930         1.603940
 H         5.337474        -0.263444         0.435692
 H         4.859444        -0.432414        -1.312587
 H         5.102292         1.016827        -0.687330
 H         2.278400         1.847534        -1.446777
 H         2.288153         0.156120        -2.186659
 H         0.319005         0.222362        -0.150517
 H         2.334564        -1.895307        -0.899374
 H         1.516936        -0.375668         2.420758
 H         3.271735        -0.547070         2.759478
 H         2.247046         2.717503         1.085617
