19
Iteration:  1592
 C         4.815846         0.121205        -0.393384
 C         3.269188         0.219192        -0.233229
 C         2.285403         0.901283        -1.217014
 C         1.391937         0.225159        -0.072180
 C         2.395291        -1.014961        -0.119313
 O         2.512416        -1.597095         1.152878
 C         2.419672        -0.464056         1.991364
 C         2.429958         0.682118         0.916189
 O         2.587961         1.941476         1.467185
 H         5.223962        -0.241626         0.507353
 H         4.913549        -0.690464        -1.035950
 H         5.336804         1.010831        -0.760615
 H         2.354119         2.005411        -1.266684
 H         2.087724         0.451519        -2.336915
 H         0.200041         0.145707         0.119277
 H         2.260839        -1.903914        -0.836229
 H         1.552720        -0.193221         2.606041
 H         3.359751        -0.428750         2.607029
 H         2.127539         2.642598         0.984376
