19
Iteration:   686charge 0 multiplicity 1
 C         4.812362         0.115835        -0.415273
 C         3.318437         0.237917        -0.333504
 C         2.258103         0.885762        -1.159089
 C         1.392034         0.290067        -0.056599
 C         2.402816        -1.071540        -0.191142
 O         2.479415        -1.573012         1.159472
 C         2.454438        -0.477002         2.050311
 C         2.393114         0.600517         1.008899
 O         2.556083         1.969539         1.424176
 H         5.083963        -0.117379         0.581101
 H         5.262295        -0.600287        -1.051351
 H         5.239886         1.137629        -0.633782
 H         2.237493         1.899897        -1.242554
 H         2.099821         0.542897        -2.245361
 H         0.236913         0.304504         0.086541
 H         2.251374        -1.872115        -0.818631
 H         1.623040        -0.654304         2.765605
 H         3.396869        -0.197740         2.587950
 H         2.729162         2.580429         0.764755
