19
Iteration:   400
 C         4.760628         0.053057        -0.350710
 C         3.325578         0.221526        -0.275806
 C         2.309534         0.834933        -1.346010
 C         1.402525         0.303716        -0.237844
 C         2.328995        -0.976943        -0.115231
 O         2.351915        -1.602214         1.224782
 C         2.691021        -0.398625         2.049065
 C         2.489052         0.669881         0.937830
 O         2.414617         1.948168         1.556505
 H         5.173841        -0.592388         0.431089
 H         5.280499        -0.400307        -1.234966
 H         5.291597         0.979415        -0.221171
 H         2.225841         1.912859        -1.592718
 H         2.161400         0.052741        -2.089019
 H         0.339285        -0.074627        -0.150264
 H         2.224121        -1.704959        -0.884951
 H         2.038641        -0.168875         2.906276
 H         3.733038        -0.362267         2.347481
 H         2.672756         2.683404         1.032695
