19
Iteration:  4888
 C         4.841141         0.160912        -0.355576
 C         3.297723         0.203564        -0.355025
 C         2.179794         1.237316        -0.964071
 C         1.520942         0.385621         0.085344
 C         2.290139        -0.813077        -0.391922
 O         2.419222        -1.707076         0.764281
 C         2.603515        -0.713953         1.877331
 C         2.585771         0.550219         1.087724
 O         2.452211         1.758353         1.695645
 H         5.087128         0.193139        -1.421155
 H         5.253165         1.012868         0.312122
 H         5.163498        -0.813661         0.085168
 H         2.303530         2.282029        -0.621035
 H         1.940572         1.098569        -2.002124
 H         0.429532         0.256485         0.424645
 H         2.027130        -1.336809        -1.306662
 H         1.805494        -0.820214         2.618712
 H         3.575530        -0.924165         2.403512
 H         1.750990         2.443030         1.309264
