19
Iteration:  1032
 C         4.822313         0.189591        -0.314778
 C         3.259080         0.177793        -0.318388
 C         2.265710         0.839593        -1.182604
 C         1.366224         0.231498        -0.144830
 C         2.302610        -1.047625        -0.154524
 O         2.342318        -1.601564         1.205695
 C         2.676332        -0.428743         2.022071
 C         2.510453         0.595378         0.967631
 O         2.526612         2.001059         1.444213
 H         5.272762        -0.747091        -0.058034
 H         5.282084         0.441550        -1.317769
 H         5.108852         1.103619         0.196058
 H         2.177028         1.970498        -1.357944
 H         2.246620         0.474408        -2.177010
 H         0.331380         0.256925        -0.205414
 H         2.212052        -1.845232        -0.905642
 H         1.786661        -0.450596         2.747733
 H         3.742202        -0.523348         2.508961
 H         2.602532         2.582504         0.657435
