19
Iteration:  2444
 C         4.741085         0.178717        -0.365032
 C         3.341884         0.237890        -0.222316
 C         2.290566         0.880939        -1.131501
 C         1.381048         0.245431         0.009522
 C         2.394243        -0.984835        -0.226172
 O         2.440859        -1.674904         1.053851
 C         2.412501        -0.571004         1.961484
 C         2.421293         0.676233         1.046198
 O         2.672415         2.009113         1.453961
 H         4.991368         1.126326        -0.943799
 H         5.229585         0.321616         0.562417
 H         4.978785        -0.617002        -1.104745
 H         2.335396         1.954047        -1.033126
 H         2.050908         0.526283        -2.259523
 H         0.220376         0.266172        -0.060686
 H         2.261761        -1.727492        -0.928173
 H         1.514994        -0.568976         2.591986
 H         3.280208        -0.592236         2.637286
 H         2.643003         2.349076         0.527574
