19
Iteration:  4324charge 0 multiplicity 1
 C         4.797409         0.235909        -0.413709
 C         3.295965         0.284079        -0.145547
 C         2.373898         1.235773        -0.972618
 C         1.389521         0.308793        -0.045393
 C         2.283067        -0.845909        -0.390014
 O         2.417041        -1.733272         0.733788
 C         2.440276        -0.783256         1.943504
 C         2.437602         0.568757         1.090004
 O         2.602553         1.770377         1.754727
 H         4.942746        -0.308329        -1.397621
 H         5.155217         1.266226        -0.539166
 H         5.327970        -0.285656         0.374837
 H         2.506819         2.325174        -0.882533
 H         2.311496         1.125828        -2.081009
 H         0.294222         0.407503         0.116237
 H         2.406645        -1.284125        -1.430650
 H         1.584687        -0.880379         2.667265
 H         3.364065        -1.162109         2.413416
 H         2.681050         2.489027         1.125733
