19
Iteration:  2982charge 0 multiplicity 1
 C         4.819052         0.189313        -0.373250
 C         3.311887         0.162415        -0.336907
 C         2.266949         1.101487        -1.065154
 C         1.358518         0.272989        -0.070053
 C         2.252242        -0.911151        -0.252956
 O         2.454359        -1.684998         0.887145
 C         2.527814        -0.682800         1.948680
 C         2.492075         0.625056         1.067781
 O         2.600535         1.946657         1.587548
 H         5.089482        -0.065127        -1.409129
 H         5.091532         1.266617        -0.338853
 H         5.249251        -0.531167         0.405688
 H         2.182503         2.257807        -0.832855
 H         2.123676         0.770780        -2.151516
 H         0.208279         0.349811         0.073134
 H         2.099308        -1.537009        -1.079828
 H         1.617290        -0.710637         2.691272
 H         3.536206        -0.682657         2.394616
 H         2.688389         1.951658         2.597974
