19
Iteration:  4767
 C         4.774225         0.304422        -0.383239
 C         3.274852         0.283413        -0.175738
 C         2.279033         1.286996        -1.025805
 C         1.365232         0.313724        -0.215152
 C         2.263116        -0.961716        -0.375474
 O         2.385232        -1.708171         0.885146
 C         2.598993        -0.762133         1.899735
 C         2.473521         0.562972         1.089856
 O         2.621426         1.766057         1.773870
 H         4.941803         0.954487        -1.229907
 H         5.408237         0.636010         0.549538
 H         5.020358        -0.771315        -0.748196
 H         1.948625         2.276259        -0.614660
 H         2.247937         1.099889        -2.064374
 H         0.207763         0.308959        -0.068237
 H         2.393089        -1.656097        -1.248751
 H         1.866743        -0.885149         2.682410
 H         3.573438        -1.046286         2.345470
 H         3.038423         2.166124         1.060163
