19
Iteration:  3722charge 0 multiplicity 1
 C         4.873215         0.162713        -0.415416
 C         3.329535         0.366817        -0.179907
 C         2.280980         1.130194        -1.194386
 C         1.378682         0.471977        -0.056190
 C         2.324087        -0.873983        -0.371766
 O         2.393564        -1.667923         0.786337
 C         2.483676        -0.795277         1.810464
 C         2.412040         0.570533         1.102168
 O         2.589134         1.702669         1.996243
 H         4.952377        -0.760006        -0.971964
 H         5.165749         1.099551        -0.859171
 H         5.455380         0.271473         0.542474
 H         2.307223         2.164802        -1.318238
 H         2.057246         0.535795        -2.135893
 H         0.239978         0.526042        -0.119553
 H         2.201620        -1.346993        -1.302562
 H         1.605186        -0.743132         2.517928
 H         3.450625        -0.815527         2.381387
 H         2.956885         2.455074         1.388241
