19
Iteration:  2607
 C         4.799444         0.253250        -0.383537
 C         3.296156         0.230993        -0.346023
 C         2.277055         0.841531        -1.266945
 C         1.395776         0.274738        -0.046787
 C         2.291520        -0.951101        -0.222326
 O         2.416605        -1.677024         1.042567
 C         2.486795        -0.553780         1.947302
 C         2.452647         0.634644         1.001504
 O         2.610451         1.965183         1.715947
 H         5.189089        -0.348750        -1.307703
 H         5.183822         1.292702        -0.594765
 H         5.288785        -0.398311         0.417541
 H         2.013391         2.000677        -1.263005
 H         2.271826         0.399135        -2.291211
 H         0.239115         0.442309        -0.032389
 H         2.170306        -1.657096        -1.025064
 H         1.630009        -0.525607         2.683106
 H         3.379389        -0.693056         2.692072
 H         3.309338         2.459536         1.366451
