19
Iteration:  1595charge 0 multiplicity 1
 C         4.792629         0.112559        -0.412727
 C         3.268254         0.246319        -0.240474
 C         2.282047         0.881517        -1.261394
 C         1.379439         0.252837        -0.082508
 C         2.410637        -1.005661        -0.096609
 O         2.488682        -1.600262         1.136691
 C         2.449021        -0.462672         2.009324
 C         2.433955         0.672588         0.947994
 O         2.585241         1.934083         1.475380
 H         5.180729        -0.257341         0.596517
 H         4.975277        -0.768582        -1.057231
 H         5.353289         1.037247        -0.710237
 H         2.401563         2.021829        -1.346548
 H         2.107984         0.484034        -2.175007
 H         0.274980         0.103874        -0.021534
 H         2.401348        -1.915471        -0.750116
 H         1.603001        -0.298752         2.658069
 H         3.349348        -0.336281         2.633857
 H         2.085946         2.566904         0.991915
