19
Iteration:  1593charge 0 multiplicity 1
 C         4.809957         0.117692        -0.400140
 C         3.266554         0.227621        -0.233619
 C         2.285221         0.895448        -1.229936
 C         1.390037         0.233840        -0.074256
 C         2.401148        -1.011129        -0.111047
 O         2.505673        -1.597799         1.147041
 C         2.426541        -0.465242         1.996816
 C         2.431249         0.679461         0.924141
 O         2.586580         1.939681         1.468608
 H         5.206971        -0.248369         0.528135
 H         4.926812        -0.703153        -1.026923
 H         5.345047         1.022354        -0.746930
 H         2.371242         2.019544        -1.292300
 H         2.088468         0.458139        -2.299260
 H         0.202254         0.128728         0.079980
 H         2.301124        -1.923583        -0.811405
 H         1.576547        -0.215935         2.617439
 H         3.361178        -0.399389         2.616249
 H         2.125731         2.607045         0.998381
