19
Iteration:   515charge 0 multiplicity 1
 C         4.836650         0.119325        -0.416744
 C         3.376564         0.201565        -0.249038
 C         2.353335         0.742910        -1.316829
 C         1.382137         0.261852        -0.114219
 C         2.273516        -0.958903        -0.135698
 O         2.336341        -1.544550         1.191984
 C         2.640205        -0.418250         1.991927
 C         2.443599         0.709732         0.930544
 O         2.438765         1.901113         1.581705
 H         5.324972        -0.638114         0.271781
 H         5.111464        -0.018419        -1.448331
 H         5.194861         1.161600        -0.094325
 H         2.218530         1.860330        -1.362043
 H         2.305568         0.111769        -2.146156
 H         0.350450         0.054935        -0.062511
 H         2.232955        -1.771872        -0.949325
 H         1.920520        -0.214141         2.785689
 H         3.670740        -0.372811         2.411653
 H         2.690670         2.570950         0.917214
