19
Iteration:  3798charge 0 multiplicity 1
 C         4.772065         0.246177        -0.293724
 C         3.338414         0.275461        -0.200903
 C         2.310660         1.214510        -1.013046
 C         1.422613         0.371792        -0.061374
 C         2.254380        -0.855445        -0.318196
 O         2.355626        -1.738285         0.729616
 C         2.466629        -0.811308         1.831359
 C         2.500810         0.559344         1.080888
 O         2.685886         1.779784         1.756093
 H         5.054851        -0.646723        -0.836465
 H         4.976918         1.167111        -0.885710
 H         5.312583         0.177508         0.704756
 H         2.472335         2.289042        -0.904326
 H         2.192421         1.097506        -2.171849
 H         0.281794         0.335093        -0.027200
 H         2.237265        -1.345959        -1.255927
 H         1.594993        -0.912380         2.528945
 H         3.453324        -0.890652         2.326985
 H         2.080561         2.395945         1.423048
