19
Iteration:  1951charge 0 multiplicity 1
 C         4.844074         0.084577        -0.394605
 C         3.344073         0.139435        -0.442101
 C         2.164887         0.803358        -1.349748
 C         1.415912         0.306505        -0.108421
 C         2.347708        -1.014751        -0.155346
 O         2.559356        -1.548477         1.146311
 C         2.418762        -0.413115         2.081127
 C         2.411333         0.713161         1.011197
 O         2.565231         1.954648         1.605163
 H         5.099616        -0.836083         0.088649
 H         5.350494         0.068507        -1.333153
 H         5.175863         0.831510         0.275258
 H         2.466090         1.947719        -1.387073
 H         1.824169         0.283648        -2.175717
 H         0.315283         0.278684         0.307117
 H         2.293537        -1.912821        -0.843658
 H         1.533923        -0.530377         2.754890
 H         3.330085        -0.359065         2.624921
 H         2.365221         2.650515         0.935123
