19
Iteration:  4116
 C         4.831089         0.319393        -0.292565
 C         3.346897         0.335076        -0.237507
 C         2.327089         1.253568        -0.961906
 C         1.348025         0.304463        -0.071248
 C         2.312609        -0.882085        -0.354995
 O         2.231414        -1.759604         0.782607
 C         2.518838        -0.816349         1.860653
 C         2.483386         0.537574         1.030033
 O         2.691163         1.750760         1.705236
 H         5.265364        -0.438794        -0.983657
 H         5.276119         1.265832        -0.534459
 H         5.194308         0.064536         0.716101
 H         2.355686         2.304046        -0.565528
 H         2.295435         1.346004        -2.092769
 H         0.246971         0.522696         0.082145
 H         2.325820        -1.476266        -1.307191
 H         1.781599        -0.887546         2.678248
 H         3.490666        -1.195664         2.218348
 H         2.093201         2.351743         1.283213
