19
Iteration:  2791
 C         4.863783         0.235620        -0.518783
 C         3.328260         0.218473        -0.281490
 C         2.287342         1.101804        -1.034496
 C         1.414315         0.271472        -0.061130
 C         2.270359        -0.950189        -0.235772
 O         2.347363        -1.642683         1.039253
 C         2.495471        -0.615065         1.987396
 C         2.509721         0.611041         1.053171
 O         2.524373         1.851799         1.502683
 H         5.392582         0.406269         0.431303
 H         5.109530        -0.681848        -1.041732
 H         5.145913         1.093245        -1.082120
 H         2.266783         2.250722        -0.951513
 H         2.136821         0.756001        -2.057647
 H         0.310043         0.050272        -0.066889
 H         2.267637        -1.888523        -1.079897
 H         1.703626        -0.726867         2.755382
 H         3.448109        -0.772403         2.519941
 H         3.335436         2.036761         1.966467
