19
Iteration:  1087charge 0 multiplicity 1
 C         4.773301         0.099549        -0.437956
 C         3.288795         0.234830        -0.296294
 C         2.279502         0.817732        -1.333454
 C         1.412045         0.236308        -0.122563
 C         2.264837        -1.011870        -0.086790
 O         2.566798        -1.584061         1.169901
 C         2.423024        -0.467300         2.038302
 C         2.474688         0.651418         1.011679
 O         2.565331         2.012528         1.544874
 H         5.413800        -0.480802         0.245247
 H         4.949381        -0.331157        -1.461076
 H         5.371792         1.022219        -0.393433
 H         2.310299         1.971601        -1.249854
 H         2.279727         0.274144        -2.255949
 H         0.387457         0.169423         0.001482
 H         2.292911        -1.684599        -0.977154
 H         1.400889        -0.612674         2.537619
 H         3.222340        -0.255733         2.871229
 H         2.370048         2.693039         0.951905
