19
Iteration:  4233
 C         4.892386         0.279419        -0.368252
 C         3.320844         0.237157        -0.279627
 C         2.361362         1.157483        -0.951610
 C         1.407074         0.393758         0.006275
 C         2.256703        -0.888441        -0.352930
 O         2.341940        -1.674968         0.788052
 C         2.520671        -0.796352         1.831312
 C         2.459475         0.546009         1.139363
 O         2.519169         1.794390         1.698514
 H         5.117897         0.802114        -1.277907
 H         5.430915         0.655798         0.561966
 H         5.327075        -0.768715        -0.542500
 H         2.639020         2.243427        -0.845396
 H         2.080641         0.989166        -1.977506
 H         0.291977         0.422333         0.035723
 H         1.895965        -1.514686        -1.082144
 H         1.668825        -0.816664         2.558072
 H         3.437200        -1.168469         2.344252
 H         2.808611         2.437245         1.119746
