19
Iteration:  3825charge 0 multiplicity 1
 C         4.915998         0.199421        -0.357589
 C         3.396068         0.363540        -0.338704
 C         2.222203         1.188366        -1.155646
 C         1.393069         0.358224        -0.016484
 C         2.280474        -0.855189        -0.347863
 O         2.369286        -1.692461         0.784140
 C         2.412062        -0.725193         1.826307
 C         2.479607         0.582066         1.113679
 O         2.631940         1.686122         1.941264
 H         5.173941        -0.719445        -0.987587
 H         5.349490         1.078590        -0.767015
 H         5.117929        -0.170348         0.600615
 H         2.432803         2.240133        -1.378187
 H         2.060848         0.858720        -2.105436
 H         0.344992         0.335928         0.110056
 H         2.319766        -1.461960        -1.314770
 H         1.545458        -0.728309         2.498381
 H         3.333914        -0.773355         2.434019
 H         2.213270         2.446716         1.597794
