19
Iteration:  3324
 C         4.776734         0.234323        -0.407280
 C         3.293690         0.273288        -0.332359
 C         2.237532         1.197172        -0.995537
 C         1.385282         0.412062         0.072881
 C         2.257108        -0.878230        -0.311545
 O         2.495136        -1.728351         0.781078
 C         2.514518        -0.764538         1.869145
 C         2.539614         0.522462         1.097741
 O         2.584886         1.757484         1.716748
 H         5.238967         0.231796        -1.401285
 H         5.199769         1.076353         0.229701
 H         5.191894        -0.610525         0.062270
 H         2.302724         2.303528        -0.927955
 H         2.045027         1.040699        -2.030455
 H         0.370320         0.578896         0.445655
 H         2.032218        -1.266846        -1.305689
 H         1.574368        -0.926031         2.409903
 H         3.339495        -0.929348         2.595012
 H         2.478958         2.411832         1.013569
