19
Iteration:  2873charge 0 multiplicity 1
 C         4.793848         0.133044        -0.443637
 C         3.318665         0.247711        -0.226357
 C         2.272319         1.091928        -1.033144
 C         1.393371         0.281515        -0.094960
 C         2.317069        -0.926755        -0.260156
 O         2.386487        -1.714967         0.964862
 C         2.630635        -0.619230         1.927467
 C         2.414082         0.637458         1.042599
 O         2.477621         1.948248         1.542981
 H         5.434420         0.954803        -0.131663
 H         5.239482        -0.601314         0.277298
 H         5.107582        -0.316970        -1.438514
 H         2.259940         2.101966        -0.591589
 H         2.105267         0.898524        -2.109324
 H         0.296022         0.269071         0.114393
 H         2.191133        -1.591289        -1.029166
 H         1.945266        -0.653602         2.756926
 H         3.685043        -0.691049         2.167427
 H         3.322101         2.097426         1.883940
