19
Iteration:   588
 C         4.782599         0.094435        -0.346739
 C         3.285281         0.160129        -0.326354
 C         2.251343         0.913016        -1.221405
 C         1.364970         0.189103        -0.105992
 C         2.362410        -1.001591        -0.133989
 O         2.558771        -1.686152         1.221270
 C         2.433729        -0.509474         2.036388
 C         2.430549         0.744288         0.938392
 O         2.612124         2.046094         1.415830
 H         5.144781        -0.705792         0.245957
 H         5.217657        -0.061063        -1.321807
 H         5.143916         1.139293         0.006464
 H         2.352313         2.086134        -1.182903
 H         2.172440         0.591582        -2.328011
 H         0.240025         0.220461         0.034046
 H         2.133040        -1.576622        -0.947039
 H         1.488665        -0.583963         2.624532
 H         3.249187        -0.284578         2.754971
 H         2.304562         2.679301         0.813900
