19
Iteration:  2459charge 0 multiplicity 1
 C         4.857089         0.189881        -0.435153
 C         3.275533         0.157709        -0.257755
 C         2.215573         1.024035        -1.096038
 C         1.400706         0.256498        -0.113070
 C         2.336296        -1.066028        -0.175175
 O         2.477332        -1.666344         1.090354
 C         2.404654        -0.530438         2.040874
 C         2.475824         0.630888         0.983234
 O         2.598355         1.990225         1.488359
 H         5.236906         0.948152        -1.087713
 H         5.432259         0.245600         0.550188
 H         5.149236        -0.797174        -0.807502
 H         2.209757         2.157153        -1.118828
 H         2.187515         0.606970        -2.191607
 H         0.382294         0.295774         0.122823
 H         2.268324        -1.772500        -1.092924
 H         1.395046        -0.569134         2.498120
 H         3.241104        -0.599443         2.720780
 H         2.802480         2.696198         0.763119
