19
Iteration:  3976
 C         4.917894         0.227961        -0.281043
 C         3.364501         0.299035        -0.346607
 C         2.186418         1.196232        -1.077057
 C         1.414811         0.298659        -0.018065
 C         2.314561        -0.910508        -0.348069
 O         2.267955        -1.642647         0.794842
 C         2.524946        -0.710204         1.831158
 C         2.495227         0.600868         1.024003
 O         2.622618         1.687561         1.838757
 H         5.276936         0.780009        -1.235784
 H         5.222188         0.781060         0.587649
 H         5.364828        -0.752596        -0.154782
 H         2.145790         2.249965        -0.826566
 H         2.200276         0.958222        -2.210001
 H         0.409977         0.309711         0.305608
 H         2.143836        -1.443349        -1.338688
 H         1.646481        -0.881322         2.484747
 H         3.490352        -0.885665         2.372532
 H         2.331665         2.478205         1.438039
