19
Iteration:  4046charge 0 multiplicity 1
 C         4.868120         0.150648        -0.434744
 C         3.372289         0.337947        -0.294905
 C         2.242882         1.187157        -1.117268
 C         1.397477         0.392233        -0.091293
 C         2.360084        -0.862212        -0.328308
 O         2.411606        -1.652253         0.776084
 C         2.418962        -0.770783         1.875820
 C         2.551696         0.594043         1.051451
 O         2.498974         1.670731         1.974101
 H         5.072024        -0.522508        -1.277508
 H         5.465518         1.093862        -0.649150
 H         5.297132        -0.318734         0.491996
 H         2.036993         2.319916        -0.886361
 H         2.078202         1.072070        -2.200066
 H         0.295601         0.489649         0.205821
 H         2.319422        -1.452067        -1.238108
 H         1.484959        -0.562968         2.438733
 H         3.297804        -0.908286         2.592850
 H         2.648699         2.481327         1.566383
