19
Iteration:  4293charge 0 multiplicity 1
 C         4.881071         0.310246        -0.239338
 C         3.324519         0.254075        -0.353934
 C         2.218800         1.136393        -1.173866
 C         1.326720         0.427279        -0.034079
 C         2.230374        -0.880978        -0.345676
 O         2.418316        -1.732254         0.781332
 C         2.458244        -0.732344         1.873637
 C         2.480627         0.635819         0.991619
 O         2.705283         1.659525         1.897881
 H         5.536696         0.245582        -1.120913
 H         5.217936         1.162208         0.197693
 H         5.195871        -0.499903         0.334818
 H         2.410623         2.189942        -1.119253
 H         1.937583         0.746117        -2.181304
 H         0.277131         0.528619         0.282456
 H         2.136923        -1.469662        -1.353957
 H         1.575401        -0.683855         2.531247
 H         3.323259        -1.061459         2.454388
 H         2.472995         2.535160         1.459516
