19
Iteration:  2535
 C         4.841177         0.113839        -0.355514
 C         3.299062         0.252319        -0.267725
 C         2.298641         0.944549        -1.226971
 C         1.406109         0.301799        -0.073276
 C         2.270861        -0.973983        -0.183423
 O         2.364909        -1.637280         1.058830
 C         2.614957        -0.493150         1.951599
 C         2.511365         0.637060         1.028697
 O         2.512483         1.881711         1.559874
 H         5.264520         0.618168        -1.203792
 H         5.213979         0.720153         0.425739
 H         5.214397        -0.879998        -0.408392
 H         2.300676         2.000085        -1.214215
 H         1.961883         0.430172        -2.176891
 H         0.394201         0.482366         0.127064
 H         2.263366        -1.610977        -1.059515
 H         1.957663        -0.495422         2.832390
 H         3.626107        -0.602534         2.260232
 H         1.960972         2.382127         1.015240
