19
Iteration:  2354
 C         4.817455         0.051487        -0.460077
 C         3.293393         0.275010        -0.252187
 C         2.313844         0.923966        -1.145154
 C         1.361318         0.297027        -0.045107
 C         2.395102        -1.009586        -0.158662
 O         2.450255        -1.692356         1.100592
 C         2.513476        -0.551417         2.044473
 C         2.426478         0.660470         0.981194
 O         2.495300         2.046089         1.477774
 H         5.429353         0.618636         0.264573
 H         5.224277        -0.977048        -0.456225
 H         5.070522         0.603737        -1.336385
 H         2.339812         2.037976        -1.194637
 H         2.331449         0.343611        -2.228712
 H         0.295777         0.310491         0.012096
 H         2.196449        -1.692101        -0.999529
 H         1.705931        -0.538043         2.769916
 H         3.482578        -0.513348         2.597016
 H         2.442784         2.729572         0.724569
