19
Iteration:  1542charge 0 multiplicity 1
 C         4.799791         0.196544        -0.402088
 C         3.299906         0.244278        -0.197288
 C         2.305912         0.812986        -1.237078
 C         1.425447         0.228201        -0.095201
 C         2.318363        -1.001252        -0.141610
 O         2.358773        -1.654065         1.175612
 C         2.542837        -0.428155         2.011602
 C         2.469215         0.656154         0.954237
 O         2.547349         1.932513         1.456902
 H         5.285694        -0.425511         0.443978
 H         5.088886        -0.211317        -1.442619
 H         5.130253         1.274868        -0.401570
 H         2.114839         1.906545        -1.314976
 H         2.313181         0.341532        -2.160055
 H         0.424273         0.298211         0.005748
 H         2.347702        -1.784046        -0.887871
 H         1.676354        -0.417725         2.702652
 H         3.451903        -0.076896         2.481126
 H         2.830268         2.476473         0.723596
