19
Iteration:  1239
 C         4.797818         0.152947        -0.432428
 C         3.359514         0.172981        -0.210144
 C         2.284095         0.904107        -1.198120
 C         1.447426         0.283308        -0.151011
 C         2.285025        -1.042150        -0.093971
 O         2.462111        -1.664290         1.223307
 C         2.489489        -0.442441         2.008981
 C         2.493801         0.661303         0.983242
 O         2.469127         1.994563         1.402068
 H         5.184931        -0.867053        -0.124845
 H         5.055405         0.259973        -1.555454
 H         5.393720         1.035191        -0.052776
 H         2.104856         2.090818        -1.201688
 H         2.267519         0.291587        -2.150315
 H         0.377487         0.258072         0.125055
 H         2.190256        -1.935993        -0.773071
 H         1.661759        -0.301525         2.726128
 H         3.483754        -0.578800         2.440529
 H         2.596285         2.530053         0.663241
