19
Iteration:  2572
 C         4.808610         0.196560        -0.343041
 C         3.302880         0.221926        -0.297703
 C         2.252610         1.022793        -1.135919
 C         1.337291         0.213014        -0.080956
 C         2.278861        -0.984816        -0.201456
 O         2.506774        -1.653990         1.065141
 C         2.437745        -0.542906         2.009061
 C         2.394586         0.610179         0.992451
 O         2.706874         1.892302         1.509806
 H         5.088147         0.287158        -1.418220
 H         5.319197         1.007493         0.290352
 H         5.232807        -0.708450         0.137189
 H         2.086334         2.214254        -0.962428
 H         2.176329         0.854012        -2.201682
 H         0.225737         0.436485        -0.128941
 H         2.249676        -1.774825        -1.103011
 H         1.501997        -0.426932         2.644877
 H         3.459550        -0.577488         2.509659
 H         2.599507         2.373917         0.701826
