19
Iteration:   390
 C         4.812493         0.069919        -0.366815
 C         3.345386         0.211157        -0.321206
 C         2.280621         0.814084        -1.316041
 C         1.448034         0.321932        -0.171735
 C         2.366378        -1.035366        -0.163799
 O         2.361771        -1.613211         1.282664
 C         2.647429        -0.363287         2.070044
 C         2.417078         0.725151         0.914862
 O         2.420586         1.909767         1.549118
 H         4.966628        -0.720062         0.373628
 H         4.908268        -0.290946        -1.442137
 H         5.433397         0.990559        -0.113338
 H         2.269292         1.928901        -1.700118
 H         2.222763         0.396309        -2.321715
 H         0.326325         0.453520        -0.253454
 H         2.343739        -1.796941        -0.864760
 H         2.008108        -0.447642         2.956520
 H         3.675225        -0.438256         2.421549
 H         2.615897         2.604143         0.877197
