19
Iteration:   983
 C         4.821771         0.171458        -0.373629
 C         3.303622         0.200607        -0.305286
 C         2.222973         0.824550        -1.240006
 C         1.427383         0.211793        -0.156080
 C         2.282333        -1.054900        -0.118517
 O         2.458902        -1.571552         1.153328
 C         2.496690        -0.427041         2.047837
 C         2.483163         0.633705         0.939716
 O         2.597987         1.994116         1.500650
 H         5.067323        -0.745199         0.234638
 H         5.294294         0.125712        -1.346813
 H         5.185014         1.113093         0.114192
 H         2.225518         1.882274        -1.152364
 H         1.955738         0.436761        -2.309486
 H         0.249129         0.175271         0.111229
 H         2.170740        -1.905403        -0.843538
 H         1.748669        -0.340762         2.822713
 H         3.435811        -0.557142         2.552014
 H         2.410008         2.680455         0.800928
