19
Iteration:  1128
 C         4.814196         0.132849        -0.455344
 C         3.379230         0.237344        -0.293704
 C         2.318867         0.936852        -1.229011
 C         1.431850         0.173004        -0.102420
 C         2.336911        -1.023316        -0.159745
 O         2.346327        -1.567162         1.209582
 C         2.623679        -0.441282         2.060791
 C         2.479826         0.651678         0.992133
 O         2.432628         1.922891         1.464480
 H         5.296288        -0.096585         0.576398
 H         5.012406        -0.752417        -1.139471
 H         5.162002         1.082942        -0.840690
 H         2.049045         2.031113        -1.059252
 H         2.203456         0.567186        -2.291640
 H         0.311567         0.261841         0.051226
 H         2.018763        -1.916879        -0.776700
 H         1.863057        -0.292082         2.810265
 H         3.573728        -0.733380         2.512739
 H         2.533289         2.499696         0.599408
