19
Iteration:   203
 C         4.744792         0.040093        -0.456876
 C         3.291065         0.152463        -0.292883
 C         2.257915         0.857673        -1.214193
 C         1.433394         0.243202        -0.057775
 C         2.368298        -1.062614        -0.147313
 O         2.557734        -1.574491         1.191493
 C         2.369951        -0.390153         2.034716
 C         2.435892         0.682062         0.969411
 O         2.536720         2.061796         1.392436
 H         5.415625        -0.475130         0.334056
 H         5.086226        -0.252339        -1.494815
 H         5.236269         1.069509        -0.396526
 H         2.322987         2.011953        -1.294755
 H         2.283830         0.231942        -2.149745
 H         0.328498         0.318916         0.009488
 H         2.160112        -1.890871        -0.831995
 H         1.436453        -0.514609         2.635310
 H         3.255668        -0.371293         2.717052
 H         3.248380         2.155517         2.078172
