19
Iteration:  4958
 C         4.914359         0.440544        -0.465057
 C         3.353548         0.376053        -0.299538
 C         2.217942         1.059879        -1.174086
 C         1.472532         0.326129        -0.027608
 C         2.203368        -0.925102        -0.320350
 O         2.339358        -1.757683         0.814752
 C         2.449947        -0.711820         1.874578
 C         2.521943         0.534914         1.041903
 O         2.619541         1.697215         1.973743
 H         5.220199        -0.260936        -1.307572
 H         5.177902         1.444159        -0.683860
 H         5.410274         0.094283         0.467229
 H         2.049355         2.080648        -0.890320
 H         1.976586         0.827970        -2.246099
 H         0.443633         0.506129         0.138810
 H         1.834320        -1.420088        -1.239565
 H         1.569977        -0.757143         2.484356
 H         3.326338        -0.908050         2.469507
 H         3.148685         2.485685         1.612327
