19
Iteration:  3278
 C         4.710958         0.317651        -0.413315
 C         3.244747         0.399860        -0.202888
 C         2.224474         1.068340        -1.151784
 C         1.313618         0.240633        -0.188924
 C         2.358859        -0.908125        -0.331267
 O         2.309071        -1.638345         0.860563
 C         2.626180        -0.683220         1.870105
 C         2.429534         0.582441         1.045812
 O         2.741426         1.716045         1.985258
 H         4.998292         0.935034        -1.324918
 H         5.370717         0.384245         0.525003
 H         4.958827        -0.730346        -0.834771
 H         2.305629         2.210963        -1.174034
 H         2.246984         0.788176        -2.182724
 H         0.116326         0.248642        -0.401180
 H         2.394667        -1.528539        -1.217457
 H         2.028872        -0.884289         2.799645
 H         3.686306        -1.026729         2.138887
 H         3.281021         2.491543         1.591475
