19
Iteration:   628
 C         4.841284         0.228590        -0.438968
 C         3.356047         0.149089        -0.239069
 C         2.277932         0.771770        -1.313748
 C         1.409006         0.319157        -0.079312
 C         2.383200        -0.966063        -0.093788
 O         2.300755        -1.650392         1.225631
 C         2.537380        -0.369971         1.977087
 C         2.437347         0.669006         0.889954
 O         2.536167         1.865342         1.562462
 H         5.432438        -0.088683         0.441273
 H         5.150043        -0.217656        -1.444351
 H         5.022450         1.256866        -0.488773
 H         2.440562         1.813921        -1.429938
 H         2.077646         0.213084        -2.259816
 H         0.283353         0.078483        -0.051162
 H         2.363482        -1.778943        -0.909502
 H         1.878986        -0.398504         2.859277
 H         3.587428        -0.289304         2.284352
 H         2.563499         2.694699         0.948134
