19
Iteration:  3203
 C         4.776851         0.188499        -0.463200
 C         3.318400         0.363505        -0.206843
 C         2.238719         1.143306        -1.037515
 C         1.338406         0.314718        -0.048673
 C         2.327696        -0.871700        -0.311018
 O         2.470624        -1.701516         0.856784
 C         2.488571        -0.704399         1.871421
 C         2.378657         0.539709         1.103760
 O         2.724637         1.836341         1.700453
 H         5.525883         0.827588         0.025722
 H         5.134305        -0.839078        -0.337176
 H         4.841454         0.249173        -1.513854
 H         2.251208         2.234097        -0.729502
 H         2.177919         0.893719        -2.080337
 H         0.231180         0.219369         0.051159
 H         2.396940        -1.582496        -1.142844
 H         1.763928        -1.030703         2.609625
 H         3.372063        -0.767050         2.464256
 H         1.884243         2.300923         1.814852
