19
Iteration:  1842charge 0 multiplicity 1
 C         4.710985         0.149209        -0.390570
 C         3.295952         0.162635        -0.302669
 C         2.256463         0.794759        -1.306670
 C         1.381771         0.294527        -0.109437
 C         2.446339        -1.050103        -0.145906
 O         2.458566        -1.596228         1.140279
 C         2.495708        -0.418592         2.025475
 C         2.395544         0.726727         0.981534
 O         2.635663         1.938775         1.597130
 H         5.218853        -0.346470         0.472499
 H         4.897160        -0.418973        -1.359412
 H         5.172414         1.201498        -0.623162
 H         2.306422         1.969926        -1.525271
 H         2.447972         0.254184        -2.238814
 H         0.202790         0.269729        -0.144919
 H         2.453539        -1.863042        -0.896907
 H         1.503852        -0.347891         2.576823
 H         3.339578        -0.437049         2.729626
 H         2.264414         2.673707         1.172501
