19
Iteration:  3830
 C         4.879248         0.169062        -0.364522
 C         3.337281         0.327691        -0.323171
 C         2.263405         1.194056        -1.157784
 C         1.449069         0.364860        -0.036525
 C         2.252102        -0.842960        -0.301909
 O         2.393655        -1.659651         0.779895
 C         2.410237        -0.662218         1.804480
 C         2.502005         0.567367         1.051560
 O         2.604943         1.642788         1.982173
 H         5.168585        -0.513261        -1.145394
 H         5.318542         1.129903        -0.786561
 H         5.276429        -0.157773         0.666578
 H         2.480559         2.300727        -1.197854
 H         2.022000         0.686600        -2.208441
 H         0.321274         0.154350         0.084961
 H         2.261178        -1.411104        -1.186803
 H         1.591798        -0.818208         2.531425
 H         3.315458        -0.652107         2.429677
 H         2.251415         2.475668         1.532786
