19
Iteration:  3839
 C         4.801237         0.161795        -0.405920
 C         3.302459         0.278135        -0.278460
 C         2.331335         1.121870        -1.125394
 C         1.429082         0.430811        -0.105350
 C         2.294333        -0.842159        -0.349597
 O         2.421715        -1.650012         0.818903
 C         2.471497        -0.650147         1.857456
 C         2.492797         0.619968         0.990901
 O         2.564624         1.602114         1.998460
 H         5.115110        -0.465666        -1.202256
 H         5.252193         1.194210        -0.511999
 H         5.391643        -0.108252         0.483129
 H         2.284447         2.219177        -0.926985
 H         2.167098         0.871120        -2.210849
 H         0.324037         0.384865         0.074763
 H         2.008826        -1.392631        -1.225656
 H         1.540702        -0.702079         2.426342
 H         3.357418        -0.830668         2.443053
 H         2.410108         2.488583         1.547633
