19
Iteration:  4422charge 0 multiplicity 1
 C         4.751454         0.232444        -0.309511
 C         3.320407         0.377243        -0.280900
 C         2.274943         1.180582        -0.959601
 C         1.438751         0.302741        -0.127114
 C         2.258532        -0.871714        -0.379335
 O         2.390874        -1.692929         0.790511
 C         2.472933        -0.720985         1.868343
 C         2.525043         0.580146         1.023708
 O         2.698816         1.671672         1.783936
 H         5.167624        -0.012378        -1.382092
 H         5.148272         1.178510         0.163731
 H         5.011778        -0.531126         0.450333
 H         2.250775         2.265212        -0.644974
 H         2.092629         1.218657        -2.061743
 H         0.332763         0.386816        -0.089224
 H         2.195650        -1.589148        -1.271512
 H         1.572980        -0.768564         2.532256
 H         3.381436        -0.738757         2.482062
 H         2.018495         2.301023         1.571909
