19
Iteration:  2321charge 0 multiplicity 1
 C         4.886989         0.073696        -0.458450
 C         3.354202         0.284164        -0.352057
 C         2.212115         0.965039        -1.153721
 C         1.361135         0.215396        -0.083048
 C         2.298327        -1.035019        -0.150689
 O         2.541433        -1.589141         1.214830
 C         2.422030        -0.419674         2.019251
 C         2.437888         0.625719         0.907641
 O         2.558459         1.866153         1.533736
 H         5.323319         0.339085         0.517829
 H         5.203270        -0.966674        -0.711527
 H         5.195684         0.802656        -1.156626
 H         2.278291         2.077554        -1.133679
 H         2.342470         0.761503        -2.359239
 H         0.297104         0.363079         0.007643
 H         2.098578        -1.725088        -0.963756
 H         1.433732        -0.379887         2.388128
 H         3.212851        -0.392147         2.798518
 H         2.451889         2.518097         0.870625
