19
Iteration:  2868charge 0 multiplicity 1
 C         4.771631         0.118565        -0.389465
 C         3.307327         0.256912        -0.291041
 C         2.257735         1.054735        -1.050462
 C         1.416003         0.307824        -0.072736
 C         2.345685        -0.919641        -0.265205
 O         2.409710        -1.732895         0.999753
 C         2.642685        -0.584528         1.882033
 C         2.432175         0.614481         0.990722
 O         2.460543         1.952378         1.592753
 H         5.420374         0.973425        -0.110493
 H         5.082987        -0.780548         0.150915
 H         4.987051        -0.104711        -1.412291
 H         2.257035         2.117049        -0.770124
 H         2.067863         1.001576        -2.130749
 H         0.364022         0.469243         0.075230
 H         2.013849        -1.722098        -1.072828
 H         1.861922        -0.543858         2.688530
 H         3.642197        -0.784004         2.372978
 H         3.395163         2.028654         2.051206
