19
Iteration:  1060
 C         4.821439         0.140901        -0.376387
 C         3.282485         0.221257        -0.340199
 C         2.221788         0.776672        -1.245845
 C         1.405875         0.250801        -0.092734
 C         2.375943        -1.052294        -0.119756
 O         2.473802        -1.577364         1.176611
 C         2.477143        -0.366594         1.982347
 C         2.416525         0.663352         0.935833
 O         2.597449         1.946195         1.562217
 H         5.217418        -0.835462         0.108934
 H         5.221358         0.077092        -1.383567
 H         5.347403         1.033564         0.018204
 H         2.123633         1.821932        -1.346111
 H         2.144285         0.293789        -2.284771
 H         0.220951         0.272604        -0.046254
 H         2.296825        -1.778052        -0.909362
 H         1.554774        -0.483287         2.532446
 H         3.328038        -0.232336         2.566564
 H         2.497337         2.667269         0.985631
