19
Iteration:  2314charge 0 multiplicity 1
 C         4.869517         0.101801        -0.449959
 C         3.316268         0.251091        -0.312560
 C         2.233522         0.958693        -1.250872
 C         1.362119         0.223847        -0.118268
 C         2.304052        -1.023940        -0.178322
 O         2.514882        -1.618546         1.243402
 C         2.470551        -0.420857         1.956273
 C         2.417480         0.653327         0.974835
 O         2.581005         1.873828         1.575453
 H         5.299655         0.336946         0.572193
 H         5.166615        -0.859747        -0.841509
 H         5.382790         0.806503        -1.215306
 H         2.218844         2.025018        -1.154538
 H         2.182556         0.575603        -2.303371
 H         0.227597         0.478086         0.154514
 H         2.340408        -1.800299        -0.909673
 H         1.445740        -0.393862         2.515382
 H         3.151434        -0.310704         2.767528
 H         2.475273         2.472805         0.841523
