19
Iteration:  1904
 C         4.816597         0.220342        -0.372307
 C         3.277554         0.161854        -0.279245
 C         2.279481         0.894858        -1.187950
 C         1.369387         0.170010        -0.074261
 C         2.372077        -0.993934        -0.131848
 O         2.308119        -1.621312         1.190374
 C         2.642585        -0.511996         2.040256
 C         2.388311         0.648477         0.991308
 O         2.588213         2.033399         1.387797
 H         5.214086        -0.699182        -0.018551
 H         5.133465         0.322606        -1.430005
 H         5.227023         0.976442         0.227163
 H         2.163356         1.944868        -1.196753
 H         2.353486         0.421400        -2.141665
 H         0.413719         0.044042        -0.449192
 H         2.156686        -1.791661        -0.970573
 H         1.883078        -0.483548         2.806142
 H         3.657427        -0.536831         2.471898
 H         2.800905         2.482436         0.601450
