19
Iteration:  2209
 C         4.806233         0.120297        -0.383574
 C         3.270551         0.260932        -0.287522
 C         2.252702         0.858293        -1.220988
 C         1.330203         0.332501        -0.066110
 C         2.323568        -1.000393        -0.129095
 O         2.572102        -1.665015         1.192404
 C         2.386381        -0.532359         2.050472
 C         2.419497         0.678962         0.944412
 O         2.633825         2.021214         1.444517
 H         5.080892        -0.899068        -0.220756
 H         5.228836         0.270609        -1.388322
 H         5.413591         0.652684         0.325056
 H         2.329687         1.982444        -1.514134
 H         2.163792         0.330688        -2.305849
 H         0.315914         0.251602        -0.008530
 H         2.559699        -1.885422        -0.868330
 H         1.563337        -0.663366         2.681398
 H         3.375252        -0.533259         2.562685
 H         2.310271         2.528122         0.637841
