19
Iteration:  3038
 C         4.818864         0.170321        -0.451631
 C         3.300308         0.258254        -0.279986
 C         2.269073         1.004192        -1.175025
 C         1.364868         0.287002        -0.092552
 C         2.288621        -0.851177        -0.291554
 O         2.399644        -1.637368         0.888610
 C         2.592012        -0.682445         1.921060
 C         2.408629         0.615433         1.165733
 O         2.635184         1.876451         1.758475
 H         5.032387        -0.891594        -0.737113
 H         5.261211         0.884483        -1.225011
 H         5.236935         0.425930         0.573216
 H         2.419017         2.256187        -1.231957
 H         2.124971         0.652072        -2.253981
 H         0.182088         0.207431        -0.047263
 H         2.357608        -1.397351        -1.234135
 H         1.910502        -0.966860         2.867086
 H         3.680310        -0.679888         2.294621
 H         1.834509         2.410466         2.063505
