19
Iteration:  4140charge 0 multiplicity 1
 C         4.876995         0.252260        -0.279820
 C         3.387967         0.196523        -0.348638
 C         2.267819         1.250152        -1.037778
 C         1.433338         0.371062        -0.009584
 C         2.258885        -0.863575        -0.396693
 O         2.329225        -1.710672         0.767401
 C         2.492610        -0.701522         1.867310
 C         2.528788         0.557852         1.030088
 O         2.595303         1.683123         1.856308
 H         5.394830        -0.234223        -1.161854
 H         5.171508         1.309327        -0.182065
 H         5.291805        -0.151850         0.619994
 H         2.190790         2.314071        -1.014152
 H         1.981232         0.991043        -2.117177
 H         0.352425         0.472780         0.105195
 H         1.840263        -1.414190        -1.325622
 H         1.632511        -0.635684         2.528580
 H         3.361888        -1.024607         2.410183
 H         2.141909         2.394396         1.233295
