19
Iteration:   172
 C         4.880223         0.129546        -0.438728
 C         3.342978         0.213327        -0.318561
 C         2.260032         0.799356        -1.251118
 C         1.413211         0.234913        -0.113382
 C         2.233806        -1.040163        -0.103678
 O         2.374172        -1.602341         1.246271
 C         2.559520        -0.402225         2.025431
 C         2.498220         0.670048         0.952632
 O         2.495751         2.009240         1.405108
 H         5.420363        -0.646226         0.117918
 H         5.250069        -0.011095        -1.512664
 H         5.176297         1.228896        -0.124142
 H         2.184929         1.922535        -1.617677
 H         2.265623         0.192510        -2.170966
 H         0.330416         0.334337         0.001686
 H         2.064572        -1.791257        -0.852245
 H         1.866453        -0.279970         2.917347
 H         3.633336        -0.328412         2.426356
 H         2.729884         1.960585         2.332953
