19
Iteration:  1057charge 0 multiplicity 1
 C         4.852659         0.158223        -0.363976
 C         3.273128         0.182254        -0.311807
 C         2.223615         0.793659        -1.273028
 C         1.413058         0.205486        -0.079319
 C         2.351588        -1.038740        -0.103967
 O         2.459563        -1.592244         1.183677
 C         2.470268        -0.357849         1.965259
 C         2.427475         0.702905         0.928658
 O         2.592923         1.939127         1.555057
 H         5.121126        -0.838132         0.018173
 H         5.259212         0.088247        -1.379480
 H         5.400084         1.093742         0.033495
 H         2.132327         1.876032        -1.376814
 H         2.084096         0.424631        -2.338953
 H         0.251060         0.277237         0.007975
 H         2.274957        -1.760316        -0.959658
 H         1.608366        -0.666256         2.590065
 H         3.476331        -0.218386         2.479888
 H         2.516127         2.767556         0.947357
