19
Iteration:  2476
 C         4.850052         0.138064        -0.454851
 C         3.351674         0.256193        -0.354062
 C         2.296522         0.942727        -1.184401
 C         1.372344         0.236079        -0.096307
 C         2.307238        -0.956147        -0.166600
 O         2.456506        -1.603829         1.166251
 C         2.464189        -0.454587         1.960543
 C         2.481703         0.610564         0.996533
 O         2.510725         1.825349         1.581592
 H         5.164058         0.896064        -1.240428
 H         5.415357         0.234728         0.502958
 H         5.326626        -0.868348        -0.646749
 H         2.229470         2.039577        -1.109838
 H         2.048498         0.900018        -2.280190
 H         0.196732         0.316196        -0.042858
 H         2.075365        -1.700684        -0.886513
 H         1.589812        -0.377899         2.624214
 H         3.328302        -0.523233         2.679109
 H         2.768961         2.605060         1.004210
