19
Iteration:   398charge 0 multiplicity 1
 C         4.753454         0.063991        -0.356479
 C         3.349514         0.218560        -0.283811
 C         2.300050         0.847281        -1.337248
 C         1.415801         0.325673        -0.236593
 C         2.336874        -0.987394        -0.125423
 O         2.351260        -1.613242         1.240786
 C         2.688034        -0.387561         2.066000
 C         2.475732         0.682404         0.927778
 O         2.412432         1.931705         1.555562
 H         5.135451        -0.614217         0.439402
 H         5.207281        -0.363704        -1.253936
 H         5.292287         0.887252        -0.203039
 H         2.214008         1.808449        -1.624559
 H         2.151811         0.077327        -2.143016
 H         0.337432        -0.042166        -0.183519
 H         2.240130        -1.782471        -0.954257
 H         2.038357        -0.213794         2.953842
 H         3.741529        -0.382140         2.374438
 H         2.683339         2.726560         0.984266
