19
Iteration:   201charge 0 multiplicity 1
 C         4.731621         0.051036        -0.452544
 C         3.290698         0.153920        -0.302217
 C         2.268281         0.861535        -1.220928
 C         1.436228         0.254837        -0.061966
 C         2.395979        -1.077281        -0.130991
 O         2.543620        -1.579002         1.190367
 C         2.387043        -0.398273         2.033506
 C         2.438840         0.681307         0.964113
 O         2.532366         2.071874         1.395485
 H         5.392600        -0.509097         0.312735
 H         5.036119        -0.237997        -1.459269
 H         5.159300         1.012821        -0.390541
 H         2.310801         1.923402        -1.308350
 H         2.246012         0.248999        -2.187603
 H         0.323215         0.341255         0.060501
 H         2.117545        -1.911228        -0.845577
 H         1.461707        -0.482883         2.598100
 H         3.214409        -0.366825         2.730261
 H         3.240876         2.124882         2.138316
