19
Iteration:   711charge 0 multiplicity 1
 C         4.778090         0.061354        -0.311546
 C         3.287339         0.236363        -0.227351
 C         2.228309         0.854527        -1.256194
 C         1.321341         0.192441        -0.100664
 C         2.293138        -1.030132        -0.113098
 O         2.573401        -1.593781         1.136193
 C         2.532162        -0.458530         1.927531
 C         2.495023         0.669062         0.927415
 O         2.581713         2.014214         1.505963
 H         5.300424        -0.454530         0.552146
 H         5.004833        -0.412502        -1.255565
 H         5.178121         1.122828        -0.406536
 H         2.283947         2.005473        -1.270200
 H         2.217021         0.658649        -2.280559
 H         0.265081         0.247499         0.059254
 H         2.138141        -1.843537        -0.906314
 H         1.472818        -0.541218         2.251111
 H         3.209381        -0.283695         2.819693
 H         2.335111         2.818019         0.987801
