19
Iteration:  4028charge 0 multiplicity 1
 C         4.794481         0.170691        -0.507907
 C         3.318801         0.323794        -0.172725
 C         2.376027         1.205557        -0.967800
 C         1.431501         0.345159        -0.076767
 C         2.351779        -0.809188        -0.399463
 O         2.438881        -1.750142         0.794887
 C         2.450533        -0.711138         1.853020
 C         2.335755         0.570682         1.122436
 O         2.531730         1.744800         1.879433
 H         4.842425        -0.324393        -1.464170
 H         5.353052         1.078993        -0.383928
 H         5.240074        -0.481081         0.282761
 H         2.672008         2.237180        -0.990515
 H         2.275752         0.934501        -2.034679
 H         0.317561         0.322249        -0.212950
 H         2.234857        -1.229396        -1.387729
 H         1.628510        -0.968914         2.544139
 H         3.425817        -0.678823         2.320971
 H         2.872188         2.387348         1.310376
