19
Iteration:   725
 C         4.763136         0.109422        -0.351956
 C         3.289131         0.216593        -0.335822
 C         2.261997         0.821800        -1.226932
 C         1.393287         0.249007        -0.088439
 C         2.347517        -1.049031        -0.155772
 O         2.560218        -1.614274         1.136972
 C         2.454269        -0.383117         1.981384
 C         2.404173         0.730132         0.938691
 O         2.597428         1.970381         1.552506
 H         4.918978        -0.680816         0.455926
 H         5.185134        -0.401082        -1.300036
 H         5.352481         0.976781        -0.145480
 H         2.152299         1.989052        -1.320218
 H         2.167022         0.256081        -2.130704
 H         0.325565         0.296445         0.050071
 H         2.310289        -1.861947        -0.965064
 H         1.711969        -0.366580         2.787604
 H         3.434152        -0.457322         2.438863
 H         2.067675         2.565035         0.940885
