19
Iteration:  1216charge 0 multiplicity 1
 C         4.812706         0.177534        -0.412172
 C         3.300087         0.129154        -0.328171
 C         2.313733         0.836216        -1.199082
 C         1.339328         0.165424        -0.079658
 C         2.402910        -1.022898        -0.175531
 O         2.503369        -1.559021         1.162350
 C         2.386007        -0.395564         2.060615
 C         2.396146         0.667393         1.023580
 O         2.640024         1.976612         1.458807
 H         5.176040        -0.700155         0.228182
 H         5.216367        -0.023702        -1.466771
 H         5.247113         1.146560        -0.155253
 H         2.174727         1.949078        -1.039139
 H         1.825318         0.447320        -2.141758
 H         0.193702         0.135731         0.062418
 H         2.270521        -1.835924        -1.013296
 H         1.504706        -0.169696         2.663787
 H         3.299483        -0.541829         2.600586
 H         2.498064         2.571326         0.627198
