19
Iteration:  1493
 C         4.847586         0.158919        -0.325164
 C         3.307786         0.206025        -0.329401
 C         2.255855         0.801071        -1.220237
 C         1.396269         0.280145        -0.114076
 C         2.315214        -1.021953        -0.113075
 O         2.400187        -1.618302         1.207131
 C         2.575375        -0.344377         1.987289
 C         2.499272         0.692727         0.873344
 O         2.513497         1.884305         1.516753
 H         5.194352        -0.777823         0.020121
 H         5.033944         0.233039        -1.369798
 H         5.295659         1.076517         0.098913
 H         2.515216         1.820077        -1.407926
 H         2.117795         0.193162        -2.125540
 H         0.182718         0.307939        -0.024260
 H         2.130438        -1.807761        -0.870855
 H         1.743232        -0.367748         2.684080
 H         3.595910        -0.413607         2.504389
 H         2.306418         2.555617         0.786034
