19
Iteration:  1655
 C         4.817061         0.118350        -0.397765
 C         3.352731         0.146454        -0.266609
 C         2.282542         0.925975        -1.287058
 C         1.440324         0.295457        -0.097331
 C         2.313244        -1.018004        -0.197143
 O         2.367850        -1.561297         1.218913
 C         2.599546        -0.468525         2.079093
 C         2.519647         0.597816         0.963366
 O         2.422429         1.947847         1.464604
 H         5.302832        -0.613070         0.284745
 H         5.213873        -0.001726        -1.492480
 H         5.210978         1.112833        -0.062761
 H         2.329244         1.956558        -1.256275
 H         2.027428         0.559148        -2.337570
 H         0.301105         0.143846        -0.110296
 H         2.186085        -2.004896        -0.743277
 H         1.766755        -0.411047         2.892302
 H         3.642014        -0.391724         2.453334
 H         2.572087         2.641706         0.856907
