19
Iteration:  1857charge 0 multiplicity 1
 C         4.832902         0.205087        -0.435690
 C         3.284368         0.195146        -0.307921
 C         2.328355         0.818989        -1.283136
 C         1.402163         0.223278        -0.160698
 C         2.245332        -1.008026        -0.114113
 O         2.450260        -1.609929         1.207076
 C         2.458733        -0.436162         2.003671
 C         2.472833         0.653299         0.949695
 O         2.607481         1.946067         1.568086
 H         5.263158        -0.324828         0.481755
 H         5.323168        -0.184254        -1.333756
 H         5.154843         1.271505        -0.256930
 H         2.395082         1.818382        -1.300642
 H         1.949515         0.354409        -2.268418
 H         0.367574         0.259870         0.092882
 H         2.053351        -1.747048        -0.872049
 H         1.705114        -0.520326         2.801772
 H         3.509040        -0.367278         2.465800
 H         2.165757         2.586903         0.944286
