19
Iteration:  3751
 C         4.862834         0.225554        -0.339109
 C         3.306697         0.333772        -0.272965
 C         2.301566         1.221311        -1.058090
 C         1.417986         0.362876        -0.055746
 C         2.291504        -0.918430        -0.418207
 O         2.262176        -1.709486         0.804697
 C         2.553378        -0.759215         1.829450
 C         2.531171         0.542731         1.034692
 O         2.606600         1.734219         1.906464
 H         5.175261        -0.730069        -0.742229
 H         5.211521         1.118714        -0.934127
 H         5.193008         0.241696         0.689967
 H         2.341655         2.346063        -0.902838
 H         2.120747         1.027873        -2.138033
 H         0.340832         0.394554         0.100835
 H         2.173622        -1.469542        -1.383883
 H         1.728366        -0.663555         2.519619
 H         3.506094        -0.929631         2.343496
 H         2.229756         2.500366         1.404931
