19
Iteration:  1190
 C         4.812954         0.199742        -0.339014
 C         3.248253         0.231844        -0.304788
 C         2.249887         0.816906        -1.340213
 C         1.290431         0.208517        -0.128425
 C         2.334575        -1.012943        -0.083615
 O         2.501963        -1.639085         1.218575
 C         2.492548        -0.435278         2.005470
 C         2.506983         0.687698         0.912223
 O         2.652163         1.914709         1.522405
 H         5.215269        -0.275297         0.524255
 H         5.169182        -0.320239        -1.182171
 H         5.251494         1.184585        -0.471069
 H         2.139269         1.837528        -1.337280
 H         2.028736         0.446434        -2.379904
 H         0.162482         0.376853         0.071389
 H         2.184028        -1.673109        -0.922517
 H         1.534764        -0.150312         2.506475
 H         3.323199        -0.553934         2.764759
 H         2.409402         2.700630         0.891254
