19
Iteration:  2926charge 0 multiplicity 1
 C         4.876164         0.305213        -0.429644
 C         3.322095         0.176013        -0.385328
 C         2.268377         1.018970        -1.121932
 C         1.371217         0.304074        -0.056041
 C         2.262658        -1.030224        -0.298286
 O         2.386986        -1.698811         0.994167
 C         2.500396        -0.589821         1.905398
 C         2.486342         0.633696         0.992540
 O         2.569299         1.901860         1.785088
 H         5.116267         0.908890        -1.287227
 H         5.428006         0.588125         0.457213
 H         5.325375        -0.641209        -0.787623
 H         2.330279         2.091885        -1.122877
 H         2.060035         0.736438        -2.219811
 H         0.283163         0.373175         0.144669
 H         1.924446        -1.759943        -0.998244
 H         1.542711        -0.392992         2.506066
 H         3.274543        -0.704644         2.665062
 H         3.466715         2.078413         1.869922
