19
Iteration:  4574
 C         4.808473         0.203963        -0.361555
 C         3.264202         0.347418        -0.238849
 C         2.268954         1.239475        -0.947530
 C         1.436045         0.312720        -0.098627
 C         2.300808        -0.918689        -0.394717
 O         2.404800        -1.718959         0.760461
 C         2.527798        -0.759074         1.922162
 C         2.486068         0.580263         1.061728
 O         2.539737         1.770923         1.767547
 H         5.195181        -0.100404        -1.351303
 H         5.318374         1.176730        -0.202753
 H         5.009321        -0.565249         0.363894
 H         2.342180         2.334991        -0.739557
 H         2.125510         1.168185        -2.032290
 H         0.338213         0.471326         0.027064
 H         2.189186        -1.505853        -1.375436
 H         1.612499        -0.981955         2.506110
 H         3.408226        -0.843552         2.564566
 H         3.338574         2.280073         1.452335
