19
Iteration:  2345
 C         4.794274         0.057388        -0.464461
 C         3.331022         0.148059        -0.263550
 C         2.255592         0.953289        -1.132688
 C         1.437077         0.222749        -0.046170
 C         2.357774        -1.019400        -0.233932
 O         2.489456        -1.608099         1.133780
 C         2.488114        -0.491246         1.996028
 C         2.437781         0.668112         1.071196
 O         2.502197         2.036238         1.487881
 H         5.285652         0.504278         0.443861
 H         5.152956        -0.968930        -0.546177
 H         5.042705         0.672411        -1.351533
 H         2.419747         2.024469        -1.116730
 H         2.156024         0.742396        -2.321031
 H         0.327552         0.386545         0.135464
 H         2.427276        -1.656144        -1.037816
 H         1.505774        -0.535020         2.443869
 H         3.270347        -0.549189         2.717236
 H         2.430669         2.408617         0.551783
