19
Iteration:  2691
 C         4.774447         0.089134        -0.407502
 C         3.254814         0.211294        -0.315624
 C         2.231762         1.041243        -1.132517
 C         1.381384         0.307992        -0.020739
 C         2.290984        -0.888871        -0.158976
 O         2.562792        -1.628389         1.000778
 C         2.515204        -0.579905         1.962569
 C         2.545633         0.604196         1.027584
 O         2.503869         1.920502         1.464475
 H         5.019026        -0.962129        -0.466788
 H         5.206587         0.644010        -1.246538
 H         5.121132         0.488506         0.534201
 H         2.387608         2.174772        -0.987990
 H         1.980907         0.613510        -2.081713
 H         0.261785         0.170463         0.046959
 H         2.168674        -1.697910        -1.130351
 H         1.566590        -0.471658         2.517016
 H         3.391685        -0.649624         2.515533
 H         3.003960         1.945758         2.363241
