19
Iteration:  2766charge 0 multiplicity 1
 C         4.872098         0.278856        -0.451027
 C         3.331875         0.185281        -0.333718
 C         2.319378         1.018551        -1.063422
 C         1.426669         0.316070        -0.007030
 C         2.255931        -0.998108        -0.217224
 O         2.264966        -1.761101         1.050704
 C         2.591944        -0.623723         1.973369
 C         2.554596         0.658725         0.980243
 O         2.462741         1.918497         1.508008
 H         5.462216         0.104550         0.460410
 H         5.135797        -0.305485        -1.367513
 H         5.051039         1.395249        -0.660318
 H         2.394331         2.134070        -0.681931
 H         2.145460         0.935850        -2.170736
 H         0.329724         0.538195         0.152043
 H         2.020143        -1.728269        -1.149033
 H         1.763165        -0.715954         2.721500
 H         3.601862        -0.799488         2.545021
 H         3.315469         2.232774         1.607715
