19
Iteration:  2924charge 0 multiplicity 1
 C         4.872534         0.292219        -0.428515
 C         3.317949         0.171539        -0.389197
 C         2.272498         1.042618        -1.115618
 C         1.371743         0.295887        -0.036996
 C         2.262887        -1.016886        -0.266748
 O         2.378280        -1.723317         0.988105
 C         2.491920        -0.577019         1.894848
 C         2.503904         0.629685         0.988171
 O         2.556627         1.910360         1.767510
 H         5.105460         0.992905        -1.243316
 H         5.458867         0.586993         0.406329
 H         5.304907        -0.606937        -0.793388
 H         2.355498         2.057587        -1.038947
 H         2.118136         0.707847        -2.182644
 H         0.336245         0.406811         0.119601
 H         1.969465        -1.803839        -1.048604
 H         1.514726        -0.493518         2.480319
 H         3.373433        -0.714912         2.597813
 H         3.480441         2.159491         1.837681
