19
Iteration:  1681charge 0 multiplicity 1
 C         4.797244         0.161044        -0.428493
 C         3.324282         0.256504        -0.192146
 C         2.282206         0.822776        -1.082735
 C         1.336006         0.168029        -0.098423
 C         2.391240        -1.006708        -0.165317
 O         2.430012        -1.677007         1.156434
 C         2.449641        -0.440330         1.996174
 C         2.404809         0.663878         0.934500
 O         2.624510         2.032894         1.409519
 H         5.061192        -0.734795         0.098824
 H         5.140173         0.137962        -1.390273
 H         5.335590         0.959129         0.089209
 H         2.076571         1.948495        -1.012643
 H         2.331351         0.479318        -2.252023
 H         0.193463         0.211710        -0.163024
 H         2.382218        -1.812563        -0.876522
 H         1.613903        -0.368829         2.673596
 H         3.456545        -0.334397         2.477658
 H         2.814510         2.662616         0.715869
