19
Iteration:  1657
 C         4.826431         0.113298        -0.393980
 C         3.343322         0.152925        -0.257156
 C         2.276378         0.936750        -1.283825
 C         1.440595         0.279696        -0.107311
 C         2.308042        -1.030776        -0.189422
 O         2.369970        -1.549894         1.210330
 C         2.590976        -0.469141         2.085247
 C         2.522973         0.601572         0.981578
 O         2.434358         1.958552         1.458980
 H         5.315115        -0.613163         0.217738
 H         5.145600         0.037078        -1.436612
 H         5.208242         1.113641        -0.071927
 H         2.351500         2.009189        -1.258140
 H         1.995926         0.551334        -2.435434
 H         0.265319         0.038891        -0.110947
 H         2.216910        -2.012126        -0.781645
 H         1.755777        -0.501499         2.855281
 H         3.651924        -0.424525         2.490147
 H         2.618272         2.599176         0.781968
