19
Iteration:  2402charge 0 multiplicity 1
 C         4.805804         0.222125        -0.347693
 C         3.306212         0.114283        -0.393966
 C         2.258372         0.893711        -1.266274
 C         1.438407         0.249387        -0.143161
 C         2.272701        -1.027327        -0.105862
 O         2.327069        -1.609153         1.170017
 C         2.617198        -0.403968         1.897708
 C         2.471231         0.680638         0.907424
 O         2.567920         1.855043         1.666385
 H         5.199341         1.225826        -0.042329
 H         5.043918        -0.437679         0.475283
 H         5.476976        -0.028445        -1.235565
 H         2.421278         1.964310        -1.109573
 H         2.014881         0.491213        -2.440012
 H         0.310144         0.204316         0.055996
 H         2.237607        -1.657952        -0.968592
 H         1.945524        -0.333689         2.769871
 H         3.591525        -0.407583         2.337653
 H         2.498167         2.639202         1.174797
