19
Iteration:  1744charge 0 multiplicity 1
 C         4.782010         0.143356        -0.380807
 C         3.330046         0.194741        -0.245331
 C         2.265472         0.788928        -1.268091
 C         1.352064         0.272181        -0.140979
 C         2.437445        -1.033339        -0.123495
 O         2.311898        -1.623037         1.166105
 C         2.613720        -0.453115         2.020040
 C         2.459890         0.703171         0.911181
 O         2.564965         1.971224         1.549680
 H         5.320108        -0.442281         0.389842
 H         5.138350        -0.031768        -1.448654
 H         5.054438         1.277226        -0.208201
 H         2.137060         1.824419        -1.307634
 H         2.260667         0.366458        -2.328504
 H         0.175491         0.401577        -0.018083
 H         2.312209        -1.719543        -1.013792
 H         1.810513        -0.445885         2.836357
 H         3.671935        -0.483696         2.419110
 H         2.303585         2.634843         0.938389
