19
Iteration:  2912
 C         4.823590         0.249396        -0.491175
 C         3.323282         0.221810        -0.261834
 C         2.288475         1.057506        -1.078108
 C         1.447144         0.331585        -0.033020
 C         2.255713        -0.973390        -0.177801
 O         2.353380        -1.761668         0.958286
 C         2.489785        -0.620885         1.916577
 C         2.540799         0.617045         1.011633
 O         2.503148         1.887633         1.614436
 H         5.057306         1.147475        -1.087594
 H         5.169206         0.386853         0.529813
 H         5.282592        -0.605850        -0.907354
 H         2.382463         2.092747        -0.888624
 H         2.153651         0.930595        -2.170863
 H         0.411081         0.379033         0.156302
 H         2.259488        -1.518864        -1.205355
 H         1.704557        -0.706806         2.714524
 H         3.510247        -0.730487         2.427726
 H         3.432787         2.350750         1.605655
