19
Iteration:  4695charge 0 multiplicity 1
 C         4.802040         0.179330        -0.431707
 C         3.281961         0.301440        -0.218001
 C         2.284475         1.188278        -1.026402
 C         1.391574         0.363382        -0.011766
 C         2.342373        -0.851783        -0.396630
 O         2.495737        -1.689308         0.777041
 C         2.506030        -0.760369         1.821823
 C         2.381255         0.560722         1.099637
 O         2.621150         1.780760         1.837209
 H         4.951593        -0.027058        -1.536230
 H         5.310431         1.088833        -0.230136
 H         5.191804        -0.659054         0.107604
 H         2.463094         2.270763        -0.894865
 H         2.229179         0.893045        -2.132247
 H         0.336275         0.411904         0.224729
 H         2.069088        -1.485736        -1.251528
 H         1.605315        -0.942782         2.501213
 H         3.417686        -0.656974         2.474622
 H         1.790082         2.213349         1.839556
