19
Iteration:  2125charge 0 multiplicity 1
 C         4.872442         0.172940        -0.407962
 C         3.331558         0.140812        -0.224230
 C         2.333538         0.818025        -1.148506
 C         1.383501         0.285591        -0.025041
 C         2.291252        -1.016613        -0.105273
 O         2.322088        -1.663989         1.100334
 C         2.657298        -0.439602         1.975989
 C         2.414301         0.659722         0.976123
 O         2.501551         2.027006         1.414437
 H         5.364536        -0.697665         0.099395
 H         5.020606         0.086732        -1.565628
 H         5.344689         1.110783        -0.118467
 H         2.246998         1.891759        -1.070024
 H         2.348003         0.568225        -2.236822
 H         0.296719         0.135540         0.272177
 H         2.192198        -1.703022        -0.998521
 H         1.795237        -0.313704         2.698957
 H         3.592796        -0.516409         2.533982
 H         2.312125         2.524668         0.634094
