19
Iteration:  2524charge 0 multiplicity 1
 C         4.842441         0.150816        -0.401870
 C         3.366560         0.284645        -0.245967
 C         2.280309         0.882875        -1.229670
 C         1.415513         0.330847        -0.098888
 C         2.226419        -0.982151        -0.186035
 O         2.343537        -1.624865         1.040636
 C         2.684130        -0.562568         1.998399
 C         2.435844         0.661949         0.979947
 O         2.497150         1.943339         1.634626
 H         5.235150         0.575654        -1.293627
 H         5.404036         0.374743         0.471218
 H         5.030566        -0.902024        -0.343046
 H         2.378946         1.885652        -1.583259
 H         2.390707         0.313242        -2.234933
 H         0.392699         0.222837         0.004222
 H         2.117751        -1.753871        -0.946320
 H         2.002185        -0.728771         2.836498
 H         3.690369        -0.561460         2.330486
 H         1.990233         2.633720         1.143696
