19
Iteration:  2355charge 0 multiplicity 1
 C         4.819013         0.054713        -0.457041
 C         3.293070         0.280150        -0.248383
 C         2.318897         0.922533        -1.146442
 C         1.359229         0.302795        -0.049270
 C         2.393286        -1.006485        -0.151728
 O         2.447440        -1.699398         1.096309
 C         2.515798        -0.553705         2.049279
 C         2.427726         0.662353         0.973381
 O         2.494464         2.044377         1.475946
 H         5.443837         0.632183         0.267112
 H         5.209042        -0.966370        -0.462451
 H         5.092754         0.583104        -1.371181
 H         2.323283         2.017863        -1.206734
 H         2.331313         0.316896        -2.230806
 H         0.257264         0.296382         0.002294
 H         2.184235        -1.671012        -0.943000
 H         1.743933        -0.544435         2.798977
 H         3.475681        -0.515720         2.564548
 H         2.444572         2.730091         0.767601
