19
Iteration:  4833
 C         4.763021         0.343523        -0.453413
 C         3.232371         0.352487        -0.330749
 C         2.280988         1.084309        -1.129898
 C         1.391869         0.332504        -0.057428
 C         2.371374        -0.936360        -0.339624
 O         2.376702        -1.672479         0.888401
 C         2.519644        -0.678808         1.830746
 C         2.386521         0.582712         1.084180
 O         2.695893         1.636670         1.931685
 H         5.193987         1.030662        -1.199812
 H         5.175165         0.744595         0.564922
 H         5.042126        -0.727027        -0.644933
 H         2.357843         2.198198        -1.042427
 H         2.216873         0.750779        -2.149794
 H         0.256794         0.495313        -0.125825
 H         2.510438        -1.627397        -1.197449
 H         1.624770        -0.694582         2.479948
 H         3.464692        -0.791436         2.392095
 H         2.748283         2.563193         1.536795
