19
Iteration:  3323charge 0 multiplicity 1
 C         4.771727         0.236539        -0.404183
 C         3.297273         0.273300        -0.336635
 C         2.234987         1.192750        -0.997681
 C         1.385455         0.422858         0.060661
 C         2.257391        -0.885963        -0.307707
 O         2.493318        -1.722526         0.778121
 C         2.522036        -0.768379         1.870530
 C         2.532693         0.529408         1.091617
 O         2.585496         1.747077         1.722538
 H         5.269517         0.280633        -1.412917
 H         5.236500         1.076155         0.232899
 H         5.190886        -0.657092         0.067321
 H         2.296075         2.319495        -0.927264
 H         2.027744         1.018123        -2.025665
 H         0.350757         0.559962         0.493544
 H         2.035817        -1.291533        -1.276129
 H         1.574100        -0.915476         2.424333
 H         3.328666        -0.907066         2.652754
 H         2.517606         2.452515         1.012826
