19
Iteration:  3334charge 0 multiplicity 1
 C         4.794010         0.215407        -0.418922
 C         3.275540         0.279735        -0.251637
 C         2.257615         1.213109        -0.958286
 C         1.420002         0.335010         0.102256
 C         2.234005        -0.824262        -0.389846
 O         2.492264        -1.765160         0.776763
 C         2.484468        -0.787946         1.873766
 C         2.549109         0.541950         1.093516
 O         2.602410         1.834835         1.700856
 H         5.047310         0.086943        -1.498000
 H         5.141199         1.293582        -0.091906
 H         5.164576        -0.585646         0.213806
 H         2.423356         2.306680        -0.695459
 H         2.090967         1.015238        -1.975196
 H         0.316285         0.457556         0.082682
 H         2.041311        -1.463049        -1.245269
 H         1.589207        -0.829653         2.535162
 H         3.453050        -1.052946         2.351467
 H         2.151505         2.318568         1.045449
