19
Iteration:  2468charge 0 multiplicity 1
 C         4.888426         0.133860        -0.459171
 C         3.361205         0.227300        -0.293475
 C         2.226787         0.998943        -1.158828
 C         1.384865         0.239192        -0.106409
 C         2.241450        -0.978235        -0.137921
 O         2.483280        -1.659809         1.120408
 C         2.425910        -0.499163         2.021537
 C         2.501723         0.646918         0.963516
 O         2.543604         1.891108         1.543433
 H         5.276336         0.941476        -1.095006
 H         5.166231         0.458482         0.511854
 H         5.252369        -0.823602        -0.884359
 H         2.340597         2.043110        -0.900809
 H         2.125240         0.794376        -2.358711
 H         0.279133         0.192072         0.001235
 H         2.361154        -1.731786        -0.875385
 H         1.463007        -0.453101         2.569695
 H         3.218818        -0.428416         2.728112
 H         2.825820         2.422255         0.710719
