19
Iteration:  2809
 C         4.742201         0.168245        -0.478932
 C         3.303373         0.277798        -0.232389
 C         2.246931         1.005452        -1.196228
 C         1.373240         0.296931        -0.121920
 C         2.373859        -0.965452        -0.213688
 O         2.456647        -1.726758         0.982912
 C         2.488236        -0.592098         1.944966
 C         2.467474         0.610903         1.047982
 O         2.577804         1.982582         1.656886
 H         5.219182         0.383817         0.499034
 H         4.874022        -0.926694        -0.742649
 H         5.047899         0.876749        -1.342229
 H         2.328805         2.139035        -0.946335
 H         2.199680         0.656303        -2.246396
 H         0.306666         0.408263         0.237150
 H         2.319230        -1.558496        -1.145983
 H         1.576433        -0.424228         2.580892
 H         3.468129        -0.765126         2.557074
 H         3.266255         1.843155         2.285248
