19
Iteration:  3075charge 0 multiplicity 1
 C         4.805926         0.301313        -0.462459
 C         3.293080         0.204946        -0.395657
 C         2.263148         1.069774        -1.159741
 C         1.387814         0.340604        -0.060087
 C         2.224537        -0.911411        -0.252427
 O         2.491103        -1.687121         0.960161
 C         2.422375        -0.599113         1.921669
 C         2.539396         0.595637         1.000887
 O         2.666174         1.734913         1.844514
 H         5.279415        -0.667582        -0.130181
 H         5.233055         0.475074        -1.466487
 H         5.171797         1.019460         0.261411
 H         2.302818         2.146067        -1.042503
 H         1.955292         0.821778        -2.176160
 H         0.412816         0.363690         0.233789
 H         2.200863        -1.683685        -1.089702
 H         1.430888        -0.530257         2.380532
 H         3.230345        -0.765409         2.653384
 H         2.142860         2.372894         1.372614
