19
Iteration:  3366
 C         4.791378         0.201411        -0.483479
 C         3.304914         0.348799        -0.224803
 C         2.262882         1.236278        -1.005781
 C         1.395687         0.363616        -0.080300
 C         2.352761        -0.852886        -0.357580
 O         2.350041        -1.729615         0.846887
 C         2.545441        -0.759197         1.882109
 C         2.428232         0.569696         1.068388
 O         2.629788         1.722208         1.747990
 H         5.067214        -0.446641        -1.377931
 H         5.215300         1.207262        -0.813069
 H         5.326521        -0.109170         0.447958
 H         2.324617         2.342129        -0.702228
 H         2.189512         1.100963        -2.063268
 H         0.267495         0.349538        -0.126503
 H         2.436434        -1.565908        -1.141656
 H         2.007189        -0.747368         2.837709
 H         3.623145        -0.728463         2.238475
 H         1.991337         1.763205         2.568316
