19
Iteration:   468charge 0 multiplicity 1
 C         4.824547         0.198655        -0.415194
 C         3.373303         0.150197        -0.266962
 C         2.245428         0.884095        -1.130740
 C         1.425791         0.166169        -0.091366
 C         2.334292        -1.068376        -0.137867
 O         2.455591        -1.639813         1.148474
 C         2.332251        -0.390748         2.003527
 C         2.415240         0.678789         1.006607
 O         2.682214         1.995348         1.406248
 H         5.300473        -0.145528         0.493266
 H         5.199606        -0.440584        -1.237899
 H         5.220607         1.269571        -0.620135
 H         2.417673         2.024099        -1.162952
 H         2.164533         0.347986        -2.033630
 H         0.358783         0.286599        -0.041764
 H         2.104127        -1.773723        -0.867122
 H         1.400774        -0.401376         2.577007
 H         3.189711        -0.434980         2.675242
 H         2.139257         2.498594         0.703985
