19
Iteration:  1524charge 0 multiplicity 1
 C         4.839703         0.208089        -0.373585
 C         3.312884         0.188011        -0.294948
 C         2.273916         0.758236        -1.232099
 C         1.341887         0.144715        -0.213356
 C         2.334265        -1.027550        -0.133047
 O         2.329934        -1.567498         1.176699
 C         2.605777        -0.418484         2.034258
 C         2.446463         0.731297         0.947146
 O         2.554154         2.016281         1.589576
 H         5.315265        -0.553713         0.178729
 H         5.004238        -0.019865        -1.424265
 H         5.263356         1.144152        -0.158450
 H         2.460584         1.800341        -1.434758
 H         2.267620         0.240690        -2.377603
 H         0.177549         0.013180        -0.229654
 H         2.284735        -1.784430        -0.886454
 H         1.887014        -0.533654         2.913931
 H         3.615987        -0.755889         2.427291
 H         2.815151         2.610364         0.903204
