19
Iteration:  2446
 C         4.742049         0.183555        -0.364863
 C         3.345159         0.226185        -0.228375
 C         2.287486         0.899547        -1.119403
 C         1.375942         0.245293         0.004502
 C         2.408472        -1.002234        -0.236724
 O         2.444945        -1.674587         1.060402
 C         2.409234        -0.565658         1.962340
 C         2.422958         0.670471         1.046499
 O         2.666352         2.017900         1.451836
 H         4.985388         1.072081        -0.986970
 H         5.291948         0.294094         0.557446
 H         4.982800        -0.638253        -1.083234
 H         2.288936         2.005485        -1.053060
 H         2.032092         0.527039        -2.299233
 H         0.253421         0.301486        -0.044402
 H         2.197642        -1.784642        -0.941035
 H         1.513400        -0.575463         2.615865
 H         3.219976        -0.630370         2.649544
 H         2.668736         2.395893         0.601835
