19
Iteration:  4250
 C         4.793497         0.280489        -0.330662
 C         3.312085         0.285152        -0.174547
 C         2.335123         1.183137        -1.072118
 C         1.384381         0.362456        -0.170427
 C         2.235751        -0.875250        -0.343870
 O         2.303850        -1.774831         0.804168
 C         2.555015        -0.748139         1.909765
 C         2.431296         0.547516         1.069490
 O         2.680917         1.772912         1.805687
 H         5.087588         0.902262        -1.226592
 H         5.193741         0.823068         0.534138
 H         5.146953        -0.732039        -0.394359
 H         2.152143         2.242090        -0.924235
 H         2.405127         0.904114        -2.172718
 H         0.309494         0.427716        -0.018433
 H         2.324448        -1.423936        -1.402246
 H         1.904055        -0.989692         2.739386
 H         3.590663        -0.689309         2.252604
 H         2.663087         2.476370         1.181046
