19
Iteration:   228charge 0 multiplicity 1
 C         4.853501         0.044734        -0.406669
 C         3.312570         0.218873        -0.288978
 C         2.253929         0.914716        -1.181192
 C         1.319733         0.253135        -0.112665
 C         2.386745        -1.036642        -0.079027
 O         2.506069        -1.583754         1.204664
 C         2.473536        -0.442710         2.062654
 C         2.411653         0.630742         0.927458
 O         2.499949         2.008858         1.345389
 H         5.422142        -0.350656         0.387886
 H         5.024682        -0.544710        -1.348820
 H         5.533328         0.997510        -0.666116
 H         2.234606         2.074094        -0.992174
 H         2.150647         0.571078        -2.190464
 H         0.254623         0.316054         0.023842
 H         2.091274        -1.836721        -0.691500
 H         1.426643        -0.443224         2.505955
 H         3.237160        -0.491213         2.906584
 H         3.487663         2.262325         1.178105
