19
Iteration:   489charge 0 multiplicity 1
 C         4.849429         0.194766        -0.425650
 C         3.351913         0.165000        -0.278238
 C         2.286581         0.815022        -1.303981
 C         1.371757         0.267328        -0.156152
 C         2.344994        -1.055871        -0.101081
 O         2.371776        -1.624048         1.210490
 C         2.474457        -0.474850         2.061333
 C         2.464100         0.703764         0.904545
 O         2.570945         1.980165         1.531846
 H         5.348512        -0.310201         0.379953
 H         5.033109        -0.246487        -1.435234
 H         5.230228         1.291359        -0.442871
 H         2.435686         1.937985        -1.113443
 H         2.213671         0.317183        -2.315115
 H         0.273115         0.268497         0.119350
 H         2.351213        -1.834867        -0.790050
 H         1.602802        -0.280937         2.712996
 H         3.387603        -0.558875         2.673995
 H         2.423815         2.680913         0.902686
