19
Iteration:  1591charge 0 multiplicity 1
 C         4.819525         0.125309        -0.387074
 C         3.273815         0.211606        -0.234582
 C         2.284540         0.905427        -1.206955
 C         1.391535         0.217217        -0.071158
 C         2.388760        -1.019381        -0.127793
 O         2.517957        -1.596781         1.158634
 C         2.415291        -0.461339         1.986734
 C         2.428896         0.684202         0.910868
 O         2.589205         1.943403         1.466325
 H         5.246510        -0.236900         0.503241
 H         4.907520        -0.692153        -1.060572
 H         5.328028         1.001076        -0.772136
 H         2.337017         1.990047        -1.243048
 H         2.093834         0.454085        -2.347919
 H         0.220287         0.164110         0.149272
 H         2.228238        -1.871836        -0.855509
 H         1.527049        -0.183235         2.597789
 H         3.352124        -0.454380         2.598407
 H         2.127531         2.673899         0.968919
