19
Iteration:  4493charge 0 multiplicity 1
 C         4.868332         0.296244        -0.359415
 C         3.323859         0.290812        -0.325548
 C         2.302128         1.089994        -1.136032
 C         1.414631         0.413625        -0.145046
 C         2.306944        -0.878880        -0.287491
 O         2.301865        -1.692058         0.824571
 C         2.523084        -0.685880         1.856488
 C         2.434390         0.582692         0.992981
 O         2.646432         1.667202         1.959979
 H         5.206185         0.732861        -1.231995
 H         5.293462         0.630190         0.568220
 H         5.212111        -0.751401        -0.415380
 H         2.197681         2.201802        -1.004500
 H         2.180887         0.704531        -2.192701
 H         0.329836         0.509825        -0.085678
 H         2.174936        -1.387933        -1.184737
 H         1.840120        -0.721494         2.736839
 H         3.584522        -0.685825         2.232920
 H         1.832407         2.199379         1.848465
