19
Iteration:  4423charge 0 multiplicity 1
 C         4.756012         0.237785        -0.299181
 C         3.328332         0.372451        -0.286063
 C         2.273817         1.191944        -0.953573
 C         1.433310         0.292912        -0.128545
 C         2.253309        -0.873179        -0.383348
 O         2.388390        -1.691594         0.786466
 C         2.470928        -0.712917         1.876173
 C         2.528557         0.575609         1.023330
 O         2.705043         1.669441         1.777815
 H         5.144415         0.007467        -1.377127
 H         5.126710         1.155808         0.154685
 H         5.010189        -0.539254         0.424447
 H         2.240371         2.257788        -0.611099
 H         2.095053         1.208716        -2.072709
 H         0.348448         0.381778        -0.053072
 H         2.194320        -1.606617        -1.286106
 H         1.571047        -0.792076         2.539623
 H         3.378009        -0.712003         2.500078
 H         1.978209         2.313415         1.536078
