19
Iteration:  4161charge 0 multiplicity 1
 C         4.788331         0.235175        -0.359070
 C         3.276756         0.334903        -0.226383
 C         2.354322         1.135340        -1.141592
 C         1.416587         0.467584        -0.117630
 C         2.267328        -0.855158        -0.313611
 O         2.428227        -1.707326         0.798343
 C         2.492890        -0.754122         1.821326
 C         2.446960         0.561634         1.041934
 O         2.592264         1.704898         1.962835
 H         4.983456        -0.064979        -1.451961
 H         5.447508         1.028366        -0.010509
 H         5.085349        -0.660709         0.169515
 H         2.443710         2.240737        -1.164029
 H         2.202409         0.690901        -2.167200
 H         0.312967         0.428027        -0.099741
 H         2.210859        -1.503687        -1.269982
 H         1.601952        -0.962585         2.411702
 H         3.380401        -0.835255         2.424127
 H         2.588966         2.515499         1.501213
