19
Iteration:   223
 C         4.898013         0.064723        -0.445772
 C         3.322271         0.206002        -0.264581
 C         2.274940         0.881681        -1.169784
 C         1.276345         0.246134        -0.141979
 C         2.337495        -0.991739        -0.076125
 O         2.541112        -1.552779         1.201938
 C         2.458340        -0.449378         2.072007
 C         2.415566         0.625460         0.958101
 O         2.512164         2.001533         1.340486
 H         5.467223        -0.472283         0.452345
 H         5.059715        -0.538039        -1.348936
 H         5.479890         0.911611        -0.609520
 H         2.200521         1.940696        -0.985022
 H         2.034693         0.558455        -2.245155
 H         0.161188         0.212757         0.035059
 H         2.051058        -1.761127        -0.895071
 H         1.454561        -0.396446         2.465404
 H         3.119916        -0.417903         2.911001
 H         3.425792         2.140991         1.331730
