19
Iteration:   270charge 0 multiplicity 1
 C         4.909609         0.164722        -0.326351
 C         3.339728         0.184015        -0.282230
 C         2.237683         0.810601        -1.297678
 C         1.368878         0.270207        -0.123839
 C         2.239548        -1.087527        -0.059514
 O         2.343227        -1.559456         1.199179
 C         2.615978        -0.451832         1.973502
 C         2.426298         0.716944         0.956626
 O         2.496593         1.944274         1.459423
 H         5.352831        -0.275252         0.620208
 H         5.227717        -0.473348        -1.246866
 H         5.485430         1.213086        -0.467444
 H         2.279645         2.015429        -1.568055
 H         2.328585         0.132658        -2.169063
 H         0.298290         0.449597        -0.078208
 H         2.209055        -1.847651        -0.772789
 H         2.113319        -0.491661         2.976366
 H         3.731993        -0.394916         2.196064
 H         2.971951         2.576690         0.866037
