19
Iteration:  4849
 C         4.764143         0.251861        -0.417347
 C         3.314901         0.230905        -0.187846
 C         2.275328         1.126404        -1.057296
 C         1.332899         0.344431        -0.186463
 C         2.323927        -0.863810        -0.352363
 O         2.382242        -1.649839         0.813344
 C         2.599547        -0.679950         1.915887
 C         2.400568         0.584170         1.054641
 O         2.646774         1.697617         1.903205
 H         4.955588         0.885981        -1.313761
 H         5.385388         0.709301         0.293135
 H         5.257332        -0.673364        -0.642802
 H         2.288319         2.205673        -1.032957
 H         2.210467         0.934414        -2.174923
 H         0.310640         0.191458        -0.045955
 H         2.149818        -1.451194        -1.245189
 H         2.055372        -0.977689         2.829103
 H         3.671963        -0.587044         2.108587
 H         2.217025         2.406966         1.510839
