19
Iteration:  3110
 C         4.791053         0.266075        -0.459162
 C         3.294360         0.356410        -0.157524
 C         2.291215         1.164242        -1.004307
 C         1.367447         0.284233        -0.060034
 C         2.307367        -0.923634        -0.241142
 O         2.340940        -1.763791         0.879531
 C         2.531311        -0.744710         1.927909
 C         2.459387         0.508863         1.027314
 O         2.623086         1.871962         1.635268
 H         5.358765        -0.237975         0.319035
 H         4.870865        -0.176876        -1.428400
 H         5.147099         1.292121        -0.737888
 H         2.148903         2.127666        -0.794193
 H         2.271661         0.871208        -2.048214
 H         0.278416         0.252325        -0.025595
 H         2.523745        -1.454272        -1.190434
 H         1.863169        -0.647947         2.729443
 H         3.462839        -0.725931         2.486554
 H         3.240722         2.369028         1.034253
