19
Iteration:  1333
 C         4.803602         0.185667        -0.374954
 C         3.303022         0.130404        -0.260796
 C         2.298912         0.914038        -1.183648
 C         1.318217         0.223677        -0.090327
 C         2.315236        -1.049116        -0.100767
 O         2.529516        -1.585142         1.153657
 C         2.431875        -0.455520         2.054575
 C         2.475544         0.658855         0.925587
 O         2.628320         1.972550         1.372370
 H         5.082927        -0.321014         0.565870
 H         5.327582        -0.351408        -1.138558
 H         5.181971         1.184322        -0.397859
 H         2.225822         1.995902        -1.134744
 H         2.168053         0.455411        -2.206553
 H         0.310319         0.167856         0.154100
 H         2.118639        -1.768941        -1.003610
 H         1.441379        -0.444172         2.585722
 H         3.299967        -0.660623         2.700192
 H         2.073875         2.595799         0.797066
