19
Iteration:   461
 C         4.834039         0.219971        -0.401864
 C         3.290675         0.183750        -0.273692
 C         2.306066         0.872343        -1.136159
 C         1.426730         0.194465        -0.112064
 C         2.305805        -1.057442        -0.159078
 O         2.471267        -1.579912         1.144499
 C         2.348956        -0.454500         2.100792
 C         2.484254         0.620948         0.965080
 O         2.656934         1.975769         1.370858
 H         5.151398        -0.166613         0.606165
 H         4.989014        -0.508015        -1.169691
 H         5.292472         1.204856        -0.624993
 H         2.206710         1.954259        -1.164465
 H         2.216934         0.438699        -2.194737
 H         0.358915         0.295840         0.119584
 H         2.121499        -1.968108        -0.898104
 H         1.371030        -0.358064         2.611327
 H         3.171080        -0.511448         2.851878
 H         2.224687         2.676832         0.795007
