19
Iteration:  1998charge 0 multiplicity 1
 C         4.762482         0.070682        -0.501460
 C         3.298626         0.154912        -0.282420
 C         2.380086         0.991575        -1.191077
 C         1.431137         0.254421        -0.091729
 C         2.427963        -1.027779        -0.152918
 O         2.370079        -1.588954         1.208898
 C         2.595091        -0.465943         2.051301
 C         2.420845         0.656734         1.022600
 O         2.467166         1.958481         1.464334
 H         5.319081        -0.481845         0.301389
 H         4.905154        -0.526602        -1.377820
 H         5.210035         1.098685        -0.611441
 H         2.162469         2.075090        -1.092230
 H         2.336020         0.565830        -2.223382
 H         0.305152         0.237216        -0.201271
 H         2.281439        -1.721316        -0.902949
 H         1.772065        -0.509213         2.776064
 H         3.580123        -0.428441         2.563009
 H         2.041030         2.510646         0.728435
