19
Iteration:  3868
 C         4.797004         0.187085        -0.477857
 C         3.337650         0.274768        -0.184717
 C         2.415343         1.236489        -1.062307
 C         1.430444         0.426468        -0.126980
 C         2.301859        -0.876225        -0.313151
 O         2.383769        -1.732187         0.827054
 C         2.502348        -0.764480         1.905911
 C         2.368657         0.586394         1.082073
 O         2.504731         1.749771         1.862699
 H         4.990179        -0.005658        -1.595435
 H         5.222001         1.127623        -0.173190
 H         5.397158        -0.606723        -0.056149
 H         2.426930         2.321723        -0.925724
 H         2.274966         1.115552        -2.123435
 H         0.415223         0.203199         0.006171
 H         2.074914        -1.456276        -1.280347
 H         1.769084        -0.978534         2.707568
 H         3.573473        -0.846043         2.239734
 H         2.896474         2.337506         1.271645
