19
Iteration:  3153
 C         4.849196         0.161060        -0.388337
 C         3.314788         0.248801        -0.408398
 C         2.215246         1.111784        -1.088205
 C         1.403116         0.409403        -0.018018
 C         2.219424        -0.908093        -0.306475
 O         2.415288        -1.726214         0.909790
 C         2.645886        -0.559081         1.863019
 C         2.529610         0.654187         1.023229
 O         2.466732         1.750553         1.742521
 H         5.221714         0.413050         0.637648
 H         5.365464        -0.747197        -0.697837
 H         5.264866         0.946275        -1.087261
 H         2.288201         2.157620        -1.021533
 H         1.978840         0.738045        -2.120433
 H         0.384177         0.600844         0.165187
 H         1.817274        -1.594821        -1.078385
 H         1.939855        -0.706867         2.681140
 H         3.684108        -0.732671         2.303611
 H         2.913235         1.464088         2.624632
