19
Iteration:  4997charge 0 multiplicity 1
 C         4.769788         0.419533        -0.402761
 C         3.345853         0.301652        -0.214531
 C         2.359111         1.173823        -0.931610
 C         1.414644         0.287747        -0.116392
 C         2.209847        -0.922588        -0.377348
 O         2.292189        -1.698698         0.815074
 C         2.562600        -0.792825         1.900048
 C         2.459249         0.542448         1.119821
 O         2.637881         1.704744         1.748578
 H         4.990931         0.059594        -1.396728
 H         4.938256         1.511629        -0.712214
 H         5.550267         0.062640         0.230879
 H         2.293945         2.274529        -0.651268
 H         2.192231         1.083533        -1.990075
 H         0.302835         0.194880        -0.001152
 H         2.018486        -1.569442        -1.205432
 H         1.850665        -0.894105         2.757517
 H         3.634479        -0.816935         2.275784
 H         2.992306         2.212605         0.927018
