19
Iteration:   864
 C         4.768380         0.127102        -0.344934
 C         3.290909         0.196360        -0.240437
 C         2.278913         0.845025        -1.291643
 C         1.365924         0.298764        -0.109511
 C         2.292369        -1.052220        -0.125926
 O         2.464835        -1.606206         1.172998
 C         2.591076        -0.451111         1.942377
 C         2.437087         0.681475         0.942880
 O         2.573515         1.965029         1.515200
 H         5.303678        -0.252211         0.574054
 H         5.183023        -0.377979        -1.205717
 H         5.095106         1.172641        -0.543096
 H         2.355308         1.959909        -1.293732
 H         2.036825         0.264999        -2.261555
 H         0.322591         0.202994         0.193378
 H         2.209259        -1.784053        -1.047171
 H         1.839419        -0.482320         2.795080
 H         3.569840        -0.442566         2.568219
 H         2.279709         2.599892         0.913844
