19
Iteration:  1950
 C         4.836717         0.096245        -0.391400
 C         3.341618         0.130280        -0.438277
 C         2.175232         0.806622        -1.348368
 C         1.412379         0.309544        -0.110204
 C         2.341775        -1.016300        -0.151758
 O         2.558466        -1.547387         1.148211
 C         2.422267        -0.409619         2.079609
 C         2.415669         0.717355         1.003650
 O         2.564601         1.949348         1.601197
 H         5.060585        -0.829724         0.067893
 H         5.362622         0.060259        -1.339405
 H         5.176305         0.795127         0.287877
 H         2.436732         1.935234        -1.391846
 H         1.807020         0.299131        -2.158762
 H         0.351207         0.233932         0.316108
 H         2.321004        -1.939048        -0.885222
 H         1.542447        -0.547813         2.745866
 H         3.330348        -0.341060         2.649403
 H         2.403138         2.644806         0.973543
