19
Iteration:  4127charge 0 multiplicity 1
 C         4.891068         0.307960        -0.263397
 C         3.325086         0.293252        -0.289479
 C         2.240797         1.231033        -0.946371
 C         1.484622         0.389621        -0.061412
 C         2.264848        -0.918276        -0.403007
 O         2.245876        -1.704182         0.792629
 C         2.504653        -0.797741         1.822323
 C         2.523485         0.517190         1.040938
 O         2.637134         1.729078         1.736879
 H         5.297136        -0.386340        -1.053479
 H         5.276285         1.283117        -0.441947
 H         5.224932        -0.063664         0.717406
 H         2.517252         2.243846        -0.590511
 H         1.986070         1.192130        -2.064248
 H         0.397356         0.199271         0.181258
 H         2.160155        -1.587752        -1.323008
 H         1.677894        -0.869207         2.548520
 H         3.459008        -0.774395         2.351137
 H         2.163231         2.424824         1.376283
