19
Iteration:  4105
 C         4.783080         0.321298        -0.293153
 C         3.263019         0.289959        -0.176341
 C         2.431868         1.301784        -0.986396
 C         1.360798         0.340399        -0.126862
 C         2.289696        -0.845934        -0.357833
 O         2.266288        -1.806672         0.739045
 C         2.566209        -0.788073         1.890660
 C         2.433301         0.473792         1.099015
 O         2.724609         1.777367         1.743795
 H         5.074686        -0.477874        -1.024643
 H         5.010583         1.249234        -0.745529
 H         5.352832         0.153434         0.640778
 H         2.105750         2.352068        -0.907955
 H         2.413316         0.879626        -2.021188
 H         0.217263         0.257104        -0.265755
 H         2.121453        -1.382093        -1.328593
 H         1.778197        -0.824615         2.659667
 H         3.567971        -1.028213         2.303194
 H         2.074838         2.507159         1.350796
