19
Iteration:  1055charge 0 multiplicity 1
 C         4.868924         0.169632        -0.357660
 C         3.277027         0.160797        -0.294876
 C         2.223320         0.803115        -1.291828
 C         1.405045         0.180070        -0.077165
 C         2.335680        -1.031175        -0.098621
 O         2.453502        -1.601589         1.185781
 C         2.470402        -0.359610         1.959379
 C         2.433480         0.728759         0.924097
 O         2.589345         1.939665         1.548420
 H         5.079141        -0.812851        -0.004646
 H         5.262742         0.098962        -1.402063
 H         5.391793         1.068124         0.051616
 H         2.151656         1.938833        -1.384558
 H         2.056300         0.490531        -2.318206
 H         0.344556         0.264490         0.041881
 H         2.258772        -1.744064        -0.958489
 H         1.645185        -0.706567         2.652648
 H         3.532461        -0.231110         2.444627
 H         2.529213         2.750487         0.953237
