19
Iteration:  2703charge 0 multiplicity 1
 C         4.715450         0.097906        -0.343539
 C         3.275581         0.257746        -0.387095
 C         2.227686         0.997943        -1.194683
 C         1.381876         0.255834        -0.071971
 C         2.225430        -0.978699        -0.258237
 O         2.573339        -1.587901         1.030069
 C         2.545479        -0.523314         1.999845
 C         2.534787         0.644765         0.980924
 O         2.567789         1.899362         1.605021
 H         5.057842        -0.935262        -0.339955
 H         5.173395         0.526305        -1.242640
 H         5.248240         0.597767         0.450855
 H         1.977873         2.136372        -1.164938
 H         2.146125         0.796326        -2.228885
 H         0.246951         0.372485         0.127828
 H         2.212932        -1.863634        -1.195903
 H         1.581333        -0.594042         2.558108
 H         3.219547        -0.648581         2.794638
 H         3.109548         1.952904         2.343959
