19
Iteration:   749charge 0 multiplicity 1
 C         4.872097         0.091558        -0.375415
 C         3.324886         0.203634        -0.296568
 C         2.265227         0.822860        -1.302378
 C         1.364159         0.267684        -0.144106
 C         2.301444        -1.017411        -0.154431
 O         2.404770        -1.537660         1.195967
 C         2.615603        -0.479352         2.035867
 C         2.465756         0.719057         0.934309
 O         2.498590         1.951140         1.551139
 H         5.392153        -0.736709         0.114332
 H         5.225746         0.155171        -1.463535
 H         5.242697         1.034301         0.000194
 H         2.168410         1.916072        -1.301053
 H         2.174081         0.325549        -2.355596
 H         0.261462         0.133031         0.109066
 H         2.214874        -1.881267        -0.754149
 H         1.844396        -0.395737         2.823265
 H         3.575280        -0.552425         2.557345
 H         2.039717         2.440982         0.928359
