19
Iteration:  3984charge 0 multiplicity 1
 C         4.887835         0.250029        -0.311857
 C         3.363781         0.301211        -0.350013
 C         2.293087         1.188860        -1.013189
 C         1.462904         0.347602         0.016994
 C         2.294888        -0.841775        -0.420935
 O         2.295386        -1.712974         0.837427
 C         2.487181        -0.692963         1.846402
 C         2.494822         0.524058         1.002465
 O         2.555437         1.714049         1.809534
 H         5.197951         0.547442        -1.302032
 H         5.309738         0.836228         0.506712
 H         5.282828        -0.800506        -0.214022
 H         2.150722         2.218328        -0.739403
 H         2.015326         1.272019        -2.066792
 H         0.393887         0.105091         0.331802
 H         2.081002        -1.560191        -1.169363
 H         1.705295        -0.740996         2.624035
 H         3.468329        -0.888973         2.193623
 H         2.470056         2.408237         1.218328
