19
Iteration:   305charge 0 multiplicity 1
 C         4.757827         0.192938        -0.370291
 C         3.256404         0.103226        -0.293778
 C         2.307159         0.791347        -1.265558
 C         1.412928         0.166823        -0.146060
 C         2.284853        -1.112105        -0.087005
 O         2.366952        -1.489344         1.167001
 C         2.493490        -0.393133         1.988241
 C         2.557002         0.691988         0.944938
 O         2.635493         1.995732         1.522395
 H         5.213764        -0.404979         0.404723
 H         5.268019        -0.162185        -1.304921
 H         5.089670         1.346098        -0.161479
 H         2.297942         1.964611        -1.492797
 H         2.290736         0.295797        -2.244068
 H         0.348649         0.169708         0.023756
 H         2.322192        -1.948886        -0.758081
 H         1.707028        -0.489854         2.762453
 H         3.503259        -0.483995         2.504439
 H         2.187132         2.667239         0.967884
