19
Iteration:  1570charge 0 multiplicity 1
 C         4.884819         0.127423        -0.435648
 C         3.296314         0.099055        -0.322540
 C         2.254757         0.901825        -1.121479
 C         1.399431         0.218758        -0.108486
 C         2.265896        -1.034949        -0.151609
 O         2.516148        -1.631713         1.123107
 C         2.425005        -0.419775         2.069605
 C         2.517728         0.664396         1.007860
 O         2.560420         2.014762         1.455507
 H         5.173993        -0.066068         0.559242
 H         5.471830        -0.428473        -1.079828
 H         5.034873         1.207325        -0.508283
 H         2.236168         2.011389        -1.042445
 H         2.031330         0.665146        -2.298502
 H         0.189307         0.196083        -0.251022
 H         2.250427        -1.946824        -0.857026
 H         1.385394        -0.420654         2.478794
 H         3.171189        -0.180949         2.883588
 H         2.413714         2.496293         0.583304
