19
Iteration:  2118charge 0 multiplicity 1
 C         4.873769         0.181756        -0.388160
 C         3.349589         0.161185        -0.299704
 C         2.297764         0.828738        -1.176550
 C         1.411601         0.271457         0.005527
 C         2.260794        -1.001782        -0.131599
 O         2.367471        -1.691595         1.145505
 C         2.545989        -0.464008         1.994475
 C         2.461924         0.675175         1.002265
 O         2.537734         1.996324         1.394681
 H         5.400420        -0.559529         0.206295
 H         5.066103        -0.050631        -1.372307
 H         5.253196         1.184111        -0.142637
 H         2.165989         2.062894        -1.234959
 H         2.232752         0.698971        -2.225413
 H         0.275785         0.173869         0.091509
 H         2.130872        -1.626148        -0.931455
 H         1.791860        -0.396109         2.821385
 H         3.556244        -0.389796         2.388873
 H         2.328551         2.537406         0.659667
