19
Iteration:  3900charge 0 multiplicity 1
 C         4.870588         0.219301        -0.400934
 C         3.403111         0.370522        -0.256359
 C         2.253297         1.276903        -0.992964
 C         1.401162         0.353750        -0.059020
 C         2.302646        -0.951199        -0.331008
 O         2.313672        -1.738015         0.806726
 C         2.461967        -0.758541         1.883554
 C         2.563832         0.551165         1.064540
 O         2.551062         1.755323         1.743328
 H         5.435054         0.595718        -1.331789
 H         5.253050         0.795654         0.422062
 H         4.990828        -0.836546        -0.146905
 H         2.273123         2.373403        -0.782014
 H         1.909447         1.136605        -2.086283
 H         0.466300         0.129631         0.345875
 H         2.251393        -1.591248        -1.280619
 H         1.644173        -0.588649         2.624282
 H         3.298319        -1.222016         2.479494
 H         2.665042         2.526632         1.033291
