19
Iteration:  4049charge 0 multiplicity 1
 C         4.882774         0.167702        -0.428186
 C         3.370277         0.330576        -0.292050
 C         2.218561         1.192949        -1.152306
 C         1.430041         0.371833        -0.094834
 C         2.333809        -0.847546        -0.348721
 O         2.417920        -1.644772         0.810896
 C         2.403326        -0.784226         1.867502
 C         2.582705         0.580836         1.040763
 O         2.499794         1.660503         1.988038
 H         4.989137        -0.561861        -1.200789
 H         5.475747         1.065191        -0.597078
 H         5.296589        -0.257631         0.533269
 H         2.096126         2.292546        -0.919238
 H         1.994367         1.148076        -2.228131
 H         0.340684         0.544677         0.234113
 H         2.218128        -1.391771        -1.247801
 H         1.508463        -0.549787         2.459314
 H         3.259957        -0.912705         2.493521
 H         2.584960         2.560639         1.560833
