19
Iteration:  4557charge 0 multiplicity 1
 C         4.818690         0.165919        -0.406350
 C         3.358593         0.292094        -0.235825
 C         2.325508         1.258644        -0.976500
 C         1.351407         0.419321        -0.020564
 C         2.299721        -0.776735        -0.291514
 O         2.491893        -1.790395         0.795711
 C         2.460116        -0.894994         1.863317
 C         2.444810         0.511741         1.109467
 O         2.483985         1.872092         1.710110
 H         5.057548         0.196677        -1.538789
 H         5.426464         0.991750        -0.032682
 H         5.203745        -0.834726        -0.051460
 H         2.289621         2.336625        -0.763635
 H         2.281148         1.196545        -2.082215
 H         0.291553         0.337338         0.028646
 H         2.242702        -1.345872        -1.176970
 H         1.606413        -0.943846         2.539032
 H         3.395562        -1.122863         2.414353
 H         2.984245         2.509212         1.043820
