19
Iteration:   338
 C         4.838999         0.116507        -0.468935
 C         3.334572         0.193407        -0.248634
 C         2.285718         0.932583        -1.223370
 C         1.370399         0.302858        -0.078891
 C         2.384367        -1.045221        -0.003024
 O         2.482216        -1.625340         1.230954
 C         2.346292        -0.489549         2.031505
 C         2.449862         0.680327         0.921383
 O         2.618240         1.975719         1.326855
 H         5.059449        -0.717428         0.178729
 H         5.096026        -0.071541        -1.540019
 H         5.163440         1.191975         0.003049
 H         2.378977         2.143072        -1.226804
 H         2.189527         0.381359        -2.172726
 H         0.358357         0.111725         0.215575
 H         2.471965        -1.895572        -0.631055
 H         1.375410        -0.584924         2.561252
 H         3.182957        -0.581115         2.779673
 H         2.104967         2.475403         0.721769
