19
Iteration:  1015
 C         4.750332         0.230808        -0.333991
 C         3.339738         0.174480        -0.216549
 C         2.308205         0.861906        -1.196782
 C         1.431149         0.237072        -0.073480
 C         2.292678        -1.021699        -0.112279
 O         2.340444        -1.598703         1.153966
 C         2.644663        -0.487961         2.020439
 C         2.403750         0.620563         0.947868
 O         2.534570         1.964419         1.345813
 H         5.237891        -0.738843         0.021893
 H         5.161456         0.359299        -1.319171
 H         5.211308         1.059616         0.340048
 H         2.486595         1.913015        -1.228390
 H         2.102236         0.567641        -2.301874
 H         0.267400         0.149346         0.285384
 H         2.184620        -1.848268        -0.850675
 H         2.141926        -0.296343         2.945039
 H         3.678793        -0.555862         2.083853
 H         2.577175         2.502476         0.581019
