19
Iteration:  2830charge 0 multiplicity 1
 C         4.823925         0.079821        -0.386879
 C         3.320626         0.270995        -0.366782
 C         2.203945         0.916060        -1.208556
 C         1.353850         0.400409        -0.026148
 C         2.285238        -0.918176        -0.255781
 O         2.569016        -1.595371         0.963004
 C         2.516664        -0.604764         1.941866
 C         2.410179         0.682188         1.016529
 O         2.548945         1.874724         1.712811
 H         5.361298         0.522753         0.475986
 H         5.159610        -1.001582        -0.453537
 H         5.079744         0.567774        -1.405052
 H         2.226846         2.041031        -1.243866
 H         2.034746         0.323828        -2.122959
 H         0.239842         0.479123        -0.102662
 H         1.957199        -1.422597        -1.072779
 H         1.580247        -0.724621         2.508336
 H         3.432246        -0.458998         2.583705
 H         3.172786         1.637622         2.420438
