19
Iteration:  3010charge 0 multiplicity 1
 C         4.802440         0.178454        -0.380337
 C         3.317766         0.274696        -0.260488
 C         2.236324         1.209846        -0.980976
 C         1.442362         0.318436        -0.077252
 C         2.245236        -0.952501        -0.265744
 O         2.365485        -1.743261         0.961666
 C         2.626131        -0.620245         1.890018
 C         2.558895         0.557496         1.029136
 O         2.530010         1.833943         1.509037
 H         4.927772        -0.690072        -1.039786
 H         5.310909         0.967275        -0.908070
 H         5.141915        -0.037881         0.600856
 H         2.304997         2.162684        -0.658158
 H         2.024843         1.105736        -2.014409
 H         0.455836         0.549245         0.087498
 H         2.344931        -1.573072        -1.220991
 H         1.953715        -0.580722         2.658871
 H         3.680971        -0.567753         2.156353
 H         1.879657         1.959663         2.320110
