19
Iteration:  2529
 C         4.819010         0.126247        -0.388182
 C         3.340849         0.287356        -0.240285
 C         2.284104         0.906366        -1.249154
 C         1.425716         0.324285        -0.095897
 C         2.232694        -0.988105        -0.176826
 O         2.352960        -1.629029         1.041215
 C         2.641028        -0.507068         1.986214
 C         2.485829         0.633243         1.029306
 O         2.502674         1.902635         1.587280
 H         5.378683         0.623184        -1.236097
 H         5.390348         0.621458         0.507085
 H         5.190811        -0.941617        -0.385006
 H         2.396444         2.075507        -1.382011
 H         2.132256         0.316383        -2.126399
 H         0.289878         0.349079         0.156007
 H         2.232322        -1.758482        -1.053891
 H         1.924491        -0.697733         2.800780
 H         3.776593        -0.559786         2.177772
 H         1.945542         2.554350         1.082056
