19
Iteration:  4315charge 0 multiplicity 1
 C         4.713085         0.287229        -0.343577
 C         3.315462         0.279545        -0.192019
 C         2.349764         1.179213        -1.015722
 C         1.468546         0.432313        -0.044515
 C         2.274126        -0.846574        -0.357363
 O         2.429418        -1.769544         0.741416
 C         2.443909        -0.799593         1.846319
 C         2.477072         0.551048         1.114663
 O         2.624874         1.772255         1.781483
 H         5.027034        -0.169494        -1.294737
 H         5.178279         1.192478        -0.351195
 H         5.182661        -0.317979         0.364602
 H         2.198258         2.223343        -0.929832
 H         2.237514         0.744519        -2.030072
 H         0.392101         0.512639         0.108366
 H         2.059485        -1.425187        -1.351102
 H         1.533919        -0.883258         2.470255
 H         3.327309        -0.963683         2.487347
 H         2.598913         2.383941         1.043491
