19
Iteration:  3778
 C         4.864005         0.303061        -0.333165
 C         3.263521         0.237776        -0.286535
 C         2.428969         1.261121        -0.902091
 C         1.339443         0.427387        -0.056273
 C         2.224628        -0.896368        -0.429410
 O         2.344056        -1.722098         0.824102
 C         2.564040        -0.770792         1.918792
 C         2.395189         0.458374         0.981503
 O         2.655158         1.715396         1.716296
 H         5.345261        -0.635083        -0.730322
 H         5.063368         1.134520        -0.964358
 H         5.101956         0.155540         0.751247
 H         2.542174         2.271294        -0.620004
 H         2.447217         1.341144        -2.029459
 H         0.218317         0.472206         0.029395
 H         1.998073        -1.458088        -1.338029
 H         1.737967        -0.890259         2.685175
 H         3.600045        -0.649130         2.403459
 H         2.104584         2.450789         1.422166
