19
Iteration:  4768charge 0 multiplicity 1
 C         4.761861         0.304825        -0.380082
 C         3.270266         0.286397        -0.170433
 C         2.277136         1.292271        -1.030087
 C         1.378677         0.311049        -0.203347
 C         2.265571        -0.963900        -0.371438
 O         2.385634        -1.717721         0.879819
 C         2.587331        -0.767122         1.903108
 C         2.478399         0.570883         1.089000
 O         2.625074         1.765587         1.762879
 H         4.913593         0.968873        -1.236005
 H         5.406068         0.634245         0.536391
 H         5.062202        -0.737185        -0.761790
 H         1.971338         2.288733        -0.611054
 H         2.254420         1.092230        -2.069819
 H         0.221808         0.315636        -0.064434
 H         2.395907        -1.644765        -1.255372
 H         1.865679        -0.883434         2.679580
 H         3.564451        -1.032347         2.368821
 H         3.042614         2.159800         1.067613
