19
Iteration:  3624
 C         4.861920         0.227647        -0.302892
 C         3.265667         0.256262        -0.387019
 C         2.311196         1.142745        -1.104921
 C         1.387926         0.481384        -0.150843
 C         2.220646        -0.895307        -0.271893
 O         2.358200        -1.721909         0.855994
 C         2.599206        -0.645536         1.833194
 C         2.447002         0.587816         1.050981
 O         2.653209         1.613455         1.873707
 H         5.166546         0.706606        -1.267488
 H         5.137140         0.951464         0.502042
 H         5.322980        -0.821634        -0.058586
 H         2.447505         2.214344        -0.991560
 H         2.056888         1.003523        -2.209709
 H         0.266913         0.493716        -0.171825
 H         2.021776        -1.448662        -1.103205
 H         1.763274        -0.728716         2.584573
 H         3.500889        -0.608327         2.468973
 H         2.117395         2.443625         1.546740
