19
Iteration:  4189charge 0 multiplicity 1
 C         4.832104         0.160636        -0.497338
 C         3.326874         0.330628        -0.226815
 C         2.336007         1.162474        -1.041035
 C         1.353811         0.331797        -0.169193
 C         2.344929        -0.829053        -0.327465
 O         2.407210        -1.639600         0.807427
 C         2.452105        -0.700922         1.904354
 C         2.399455         0.568030         1.035154
 O         2.544010         1.724493         1.947692
 H         5.075140         0.319712        -1.522662
 H         5.548234         0.486760         0.316029
 H         5.148306        -0.934513        -0.316401
 H         2.377377         2.260677        -0.820114
 H         2.343840         1.082212        -2.119376
 H         0.248808         0.238613        -0.131916
 H         2.574522        -1.382443        -1.175659
 H         1.564746        -0.961567         2.534932
 H         3.404796        -0.742074         2.510351
 H         3.046224         2.335525         1.489601
