19
Iteration:  2026
 C         4.954646         0.163775        -0.446839
 C         3.293980         0.154861        -0.311906
 C         2.326128         0.898556        -1.182311
 C         1.388349         0.240958        -0.022724
 C         2.287653        -1.092321        -0.130243
 O         2.334083        -1.608745         1.158714
 C         2.591223        -0.401303         1.972277
 C         2.497818         0.665714         0.972742
 O         2.440146         1.957360         1.528107
 H         5.492042        -0.097953         0.460579
 H         5.103385        -0.685548        -1.220337
 H         5.335755         1.045441        -0.924540
 H         2.155623         2.023707        -1.215403
 H         2.292396         0.673719        -2.242172
 H         0.275153         0.431246         0.021988
 H         2.006631        -1.867896        -0.992431
 H         1.781082        -0.407311         2.738612
 H         3.605739        -0.457747         2.421239
 H         2.584198         2.546278         0.735904
