19
Iteration:  3921charge 0 multiplicity 1
 C         4.815276         0.251077        -0.261009
 C         3.289546         0.232763        -0.327660
 C         2.296421         1.128854        -1.001435
 C         1.341221         0.439653        -0.087061
 C         2.253700        -0.888890        -0.396424
 O         2.424191        -1.699253         0.833411
 C         2.478986        -0.696615         1.851157
 C         2.461153         0.554599         1.036349
 O         2.700593         1.693922         1.821109
 H         5.172828         0.857910        -1.176601
 H         5.208507         0.836577         0.545056
 H         5.255512        -0.743159        -0.457369
 H         2.388257         2.215163        -0.888093
 H         2.113813         1.060310        -2.162320
 H         0.266927         0.484075        -0.108169
 H         2.113139        -1.413139        -1.384254
 H         1.637535        -0.842344         2.571372
 H         3.409489        -0.677622         2.476395
 H         2.309599         2.382904         1.321991
