19
Iteration:  3314charge 0 multiplicity 1
 C         4.809459         0.240960        -0.384312
 C         3.288749         0.291610        -0.336376
 C         2.199912         1.169678        -1.035953
 C         1.378159         0.456589        -0.003027
 C         2.254410        -0.896254        -0.323004
 O         2.485441        -1.696141         0.792925
 C         2.555217        -0.763752         1.908854
 C         2.476511         0.576824         0.999364
 O         2.609674         1.693982         1.801124
 H         5.192602         0.547036        -1.323624
 H         5.306102         0.971018         0.286896
 H         5.018887        -0.723117        -0.130244
 H         2.300818         2.232919        -0.879638
 H         1.921201         0.854053        -2.018402
 H         0.388196         0.406018         0.332148
 H         2.047529        -1.702588        -1.082606
 H         1.612540        -0.786010         2.449456
 H         3.354227        -0.842327         2.635810
 H         2.893264         2.507279         1.289517
