19
Iteration:   953charge 0 multiplicity 1
 C         4.834852         0.105141        -0.469769
 C         3.278182         0.217589        -0.254794
 C         2.230851         0.772434        -1.245618
 C         1.363206         0.280023        -0.177279
 C         2.326390        -1.021556        -0.130067
 O         2.582687        -1.592716         1.175188
 C         2.386759        -0.382083         2.005908
 C         2.441955         0.680772         0.932370
 O         2.605725         1.947836         1.605095
 H         5.210037        -0.434104         0.412789
 H         5.070206        -0.389137        -1.402904
 H         5.259764         1.050715        -0.363438
 H         2.245587         1.868270        -1.308991
 H         2.043948         0.258477        -2.155001
 H         0.370529         0.333470        -0.035238
 H         2.357814        -1.756021        -0.941138
 H         1.465336        -0.381113         2.621623
 H         3.266753        -0.379170         2.713323
 H         2.458694         2.666196         1.025816
