19
Iteration:   471
 C         4.829979         0.188037        -0.422476
 C         3.368746         0.141015        -0.261559
 C         2.245881         0.878218        -1.137932
 C         1.414555         0.182434        -0.077454
 C         2.349661        -1.055480        -0.122408
 O         2.443726        -1.652767         1.160966
 C         2.341108        -0.389231         1.978396
 C         2.409687         0.687444         1.005902
 O         2.677425         2.001204         1.414634
 H         5.400095        -0.154783         0.473957
 H         5.262705        -0.380488        -1.223112
 H         5.165379         1.258998        -0.605963
 H         2.407761         1.967456        -1.204325
 H         2.136817         0.428823        -2.142177
 H         0.342700         0.210231        -0.086620
 H         2.141678        -1.792141        -0.960501
 H         1.411821        -0.438989         2.547884
 H         3.208539        -0.401210         2.664772
 H         2.177938         2.482683         0.756621
