19
Iteration:  3421
 C         4.812384         0.293827        -0.390496
 C         3.307804         0.344184        -0.239517
 C         2.267671         1.143504        -1.111639
 C         1.393891         0.398232         0.006782
 C         2.291487        -0.871128        -0.351085
 O         2.361081        -1.727980         0.735585
 C         2.514447        -0.817065         1.902286
 C         2.459196         0.573918         1.111925
 O         2.608856         1.712559         1.845885
 H         5.139580        -0.597244        -0.957040
 H         5.183257         1.257064        -0.827893
 H         5.438496         0.223675         0.487832
 H         2.320008         2.279873        -1.136686
 H         2.269672         0.781634        -2.102868
 H         0.326612         0.632028         0.068323
 H         2.087976        -1.477743        -1.255070
 H         1.609020        -0.774400         2.500248
 H         3.494770        -0.904024         2.467784
 H         3.146487         2.375307         1.290453
