19
Iteration:   951
 C         4.835829         0.096621        -0.464980
 C         3.272835         0.222931        -0.278816
 C         2.236037         0.773395        -1.233849
 C         1.376279         0.277424        -0.189819
 C         2.328309        -1.032507        -0.114422
 O         2.576776        -1.579747         1.168709
 C         2.390764        -0.397752         2.020654
 C         2.444210         0.694648         0.941631
 O         2.603746         1.953018         1.614347
 H         5.309188        -0.410978         0.421689
 H         4.996232        -0.391380        -1.386788
 H         5.295364         1.084699        -0.396071
 H         2.238737         1.830978        -1.310491
 H         2.067325         0.256344        -2.251797
 H         0.254006         0.321561        -0.013318
 H         2.288517        -1.775521        -0.972502
 H         1.456323        -0.477515         2.588618
 H         3.263397        -0.366137         2.669047
 H         2.441883         2.686643         0.940319
