19
Iteration:  1111charge 0 multiplicity 1
 C         4.838690         0.100575        -0.499091
 C         3.325509         0.112809        -0.256605
 C         2.258788         0.910850        -1.160773
 C         1.362424         0.223623        -0.103697
 C         2.391995        -1.019119        -0.117073
 O         2.436389        -1.612967         1.177699
 C         2.489795        -0.393284         1.984068
 C         2.482402         0.683415         0.995450
 O         2.474154         1.968080         1.476165
 H         5.400472        -0.157166         0.372045
 H         5.167375        -0.626625        -1.233327
 H         5.394814         1.077659        -0.655828
 H         2.466622         1.997960        -1.092279
 H         2.060163         0.435565        -2.127118
 H         0.269872         0.240277         0.018386
 H         2.380828        -1.654000        -1.033057
 H         1.653692        -0.493123         2.745786
 H         3.491846        -0.353258         2.554667
 H         2.448908         2.769007         0.861164
