19
Iteration:  2048
 C         4.787419         0.161023        -0.389473
 C         3.257271         0.222576        -0.297767
 C         2.230708         0.782323        -1.287489
 C         1.400737         0.235172        -0.126765
 C         2.345730        -0.938859        -0.115338
 O         2.404287        -1.608034         1.152025
 C         2.497530        -0.482221         2.030569
 C         2.560263         0.664274         0.961961
 O         2.569735         1.946983         1.578615
 H         5.191284         0.122584         0.627640
 H         5.234914        -0.693456        -1.025366
 H         5.088343         1.109959        -0.803608
 H         2.503805         1.851932        -1.516332
 H         2.007385         0.321070        -2.255189
 H         0.281309         0.365178        -0.088150
 H         2.269961        -1.543819        -1.105098
 H         1.723387        -0.390775         2.832198
 H         3.514999        -0.540953         2.444437
 H         2.745056         2.588252         0.874602
