19
Iteration:  2504charge 0 multiplicity 1
 C         4.804711         0.076733        -0.460389
 C         3.313191         0.234515        -0.255118
 C         2.337244         0.826316        -1.305010
 C         1.367435         0.278405        -0.164005
 C         2.322096        -0.937791        -0.144419
 O         2.363455        -1.660574         1.077448
 C         2.619692        -0.493250         1.939590
 C         2.466036         0.720132         1.055725
 O         2.479280         1.958927         1.747714
 H         5.093480         0.765676        -1.212764
 H         5.370797         0.496038         0.411690
 H         5.297296        -0.859304        -0.606829
 H         2.361709         1.974919        -1.327722
 H         2.102721         0.434396        -2.315653
 H         0.336605         0.339788        -0.146330
 H         2.415630        -1.646743        -1.098563
 H         1.931934        -0.541561         2.803438
 H         3.681275        -0.587349         2.191579
 H         2.256665         2.734345         1.088626
