19
Iteration:  2702
 C         4.711369         0.096885        -0.345272
 C         3.273785         0.254322        -0.391787
 C         2.236195         1.002184        -1.188103
 C         1.381594         0.259066        -0.065659
 C         2.222213        -0.969228        -0.248165
 O         2.574525        -1.586780         1.025728
 C         2.543531        -0.529736         2.000583
 C         2.542836         0.638614         0.985303
 O         2.561560         1.898636         1.592346
 H         5.075450        -0.914195        -0.342653
 H         5.165218         0.531426        -1.245353
 H         5.256861         0.563223         0.461600
 H         1.974787         2.131811        -1.153878
 H         2.126750         0.784779        -2.237754
 H         0.255086         0.337742         0.108759
 H         2.238616        -1.851159        -1.190122
 H         1.580474        -0.573000         2.559562
 H         3.214114        -0.649241         2.783439
 H         3.104132         1.973863         2.371481
