19
Iteration:   286
 C         4.854320         0.191093        -0.342821
 C         3.335515         0.204036        -0.306333
 C         2.291284         0.734428        -1.328865
 C         1.389314         0.293086        -0.163425
 C         2.292476        -0.965793        -0.132738
 O         2.312894        -1.671515         1.285558
 C         2.643202        -0.372265         2.008856
 C         2.407869         0.654446         0.894465
 O         2.568470         1.939343         1.535140
 H         5.186603        -0.341757         0.513235
 H         5.226449        -0.298378        -1.185925
 H         5.136561         1.239955        -0.300806
 H         2.310329         1.758643        -1.450405
 H         1.989207         0.322703        -2.289855
 H         0.278293         0.276280        -0.075834
 H         2.086324        -1.776115        -0.952416
 H         1.948834        -0.114634         2.831104
 H         3.689389        -0.388230         2.409953
 H         2.578663         2.511473         0.802969
