19
Iteration:  1955charge 0 multiplicity 1
 C         4.863771         0.042852        -0.400649
 C         3.340209         0.167009        -0.445392
 C         2.146143         0.809723        -1.334739
 C         1.414365         0.290664        -0.087417
 C         2.371806        -1.000999        -0.158081
 O         2.557993        -1.554556         1.144796
 C         2.410194        -0.426992         2.068019
 C         2.400930         0.693727         1.027764
 O         2.563937         1.979536         1.610983
 H         5.233261        -0.884316         0.169892
 H         5.349814         0.120584        -1.398156
 H         5.211102         0.991100         0.215092
 H         2.448118         1.847392        -1.426016
 H         1.899166         0.230840        -2.338730
 H         0.314301         0.429245         0.139614
 H         2.155109        -1.825058        -0.761363
 H         1.530800        -0.459173         2.737532
 H         3.385499        -0.412426         2.622802
 H         2.261262         2.600103         0.890827
