19
Iteration:  3260
 C         4.818425         0.364328        -0.460234
 C         3.290946         0.326233        -0.234416
 C         2.251974         1.082861        -1.112612
 C         1.377141         0.361565        -0.115103
 C         2.265849        -0.852854        -0.302435
 O         2.259922        -1.746281         0.872252
 C         2.624451        -0.726755         1.888828
 C         2.499466         0.572929         1.094915
 O         2.667957         1.698024         1.858663
 H         5.056032         1.254033        -0.986056
 H         5.242624         0.307132         0.524039
 H         5.159554        -0.411251        -1.062641
 H         2.157262         2.162876        -1.134789
 H         2.173407         0.716948        -2.155119
 H         0.385296         0.255824         0.059065
 H         2.261078        -1.562230        -1.148717
 H         1.890668        -0.813117         2.667660
 H         3.641721        -0.805006         2.224777
 H         2.746199         2.463397         1.192211
