19
Iteration:  2161
 C         4.857123         0.063401        -0.485566
 C         3.334728         0.195066        -0.294145
 C         2.291277         0.898667        -1.312858
 C         1.386065         0.211164        -0.164806
 C         2.366916        -1.000268        -0.093960
 O         2.391020        -1.602136         1.231582
 C         2.640154        -0.352096         2.040899
 C         2.364826         0.687485         0.911594
 O         2.460501         1.909541         1.603202
 H         5.147343        -0.980344        -0.267252
 H         5.271087         0.256858        -1.442133
 H         5.416325         0.627316         0.285028
 H         2.385867         2.107854        -1.368158
 H         2.195651         0.556706        -2.271224
 H         0.243785         0.334227        -0.005262
 H         2.109549        -1.728167        -0.761786
 H         1.744012        -0.373475         2.720440
 H         3.577824        -0.430718         2.548294
 H         2.489872         2.615822         0.973916
