19
Iteration:  2762charge 0 multiplicity 1
 C         4.831196         0.292341        -0.443871
 C         3.340488         0.193472        -0.326860
 C         2.337189         1.041103        -1.085053
 C         1.426041         0.313890        -0.031859
 C         2.213995        -1.019709        -0.209819
 O         2.282339        -1.754183         1.048736
 C         2.590624        -0.633965         1.952131
 C         2.586635         0.649746         1.016652
 O         2.467132         1.934185         1.522360
 H         5.344397        -0.084058         0.484603
 H         5.092982        -0.264754        -1.350073
 H         5.001755         1.376233        -0.620950
 H         2.374201         2.054541        -0.879116
 H         2.145663         0.789457        -2.151858
 H         0.360524         0.331675         0.082370
 H         2.119008        -1.627475        -0.971525
 H         1.786404        -0.669088         2.685414
 H         3.572860        -0.867366         2.431685
 H         3.389642         2.378929         1.667623
