19
Iteration:   641charge 0 multiplicity 1
 C         4.850677         0.284837        -0.459655
 C         3.314045         0.165657        -0.323750
 C         2.351256         0.792736        -1.285312
 C         1.396508         0.209084        -0.190669
 C         2.294908        -1.099577        -0.078071
 O         2.297865        -1.575751         1.206488
 C         2.603717        -0.470608         2.021994
 C         2.439759         0.698763         0.988511
 O         2.512276         1.968089         1.602958
 H         5.378915        -0.125448         0.371357
 H         5.176446        -0.374628        -1.282757
 H         5.257366         1.286344        -0.698282
 H         2.393243         1.790230        -1.452872
 H         2.272407         0.394960        -2.372842
 H         0.217593         0.289751         0.032822
 H         2.202188        -1.857164        -0.815522
 H         1.877954        -0.243463         2.846307
 H         3.628817        -0.623730         2.424147
 H         2.716676         2.561102         0.905039
