19
Iteration:  2500
 C         4.791492         0.086023        -0.477896
 C         3.337660         0.218858        -0.246909
 C         2.295725         0.855773        -1.278608
 C         1.408895         0.294837        -0.163927
 C         2.314105        -0.978679        -0.157371
 O         2.366551        -1.649839         1.064477
 C         2.599246        -0.445094         1.945354
 C         2.468658         0.694625         1.037542
 O         2.476990         1.940144         1.745219
 H         5.048853         0.821759        -1.263713
 H         5.258464         0.367215         0.453283
 H         5.338690        -0.880532        -0.526683
 H         2.456761         1.899162        -1.442601
 H         2.144418         0.543620        -2.401126
 H         0.278080         0.262419        -0.074966
 H         2.535243        -1.651290        -0.906821
 H         1.970419        -0.566649         2.821871
 H         3.620550        -0.443446         2.326146
 H         2.358094         2.632092         1.145132
