19
Iteration:  3361
 C         4.815558         0.194106        -0.495692
 C         3.277343         0.342153        -0.211332
 C         2.258735         1.262980        -0.995569
 C         1.378779         0.329049        -0.066563
 C         2.374531        -0.849718        -0.321230
 O         2.353629        -1.736772         0.823280
 C         2.549467        -0.754763         1.879881
 C         2.421068         0.547223         1.091762
 O         2.647755         1.765769         1.728505
 H         5.058777        -0.340209        -1.400515
 H         5.167625         1.154100        -0.797172
 H         5.215823        -0.188417         0.462939
 H         2.269007         2.236106        -0.564894
 H         2.299142         1.089401        -2.114803
 H         0.297478         0.510429        -0.095500
 H         2.466543        -1.538323        -1.212612
 H         1.928612        -0.939642         2.796081
 H         3.587672        -0.837069         2.232549
 H         1.885209         1.878466         2.260223
