19
Iteration:   869
 C         4.760604         0.148566        -0.364034
 C         3.270049         0.148446        -0.267379
 C         2.291094         0.831685        -1.240125
 C         1.407547         0.318768        -0.104023
 C         2.350414        -1.087963        -0.117495
 O         2.431243        -1.589287         1.148636
 C         2.624002        -0.472067         1.971882
 C         2.402177         0.706204         0.951273
 O         2.552562         1.971991         1.516317
 H         5.208867        -0.239907         0.535810
 H         5.200879        -0.528669        -1.176820
 H         5.197195         1.125594        -0.571842
 H         2.244451         1.944243        -1.271663
 H         1.984188         0.476074        -2.194801
 H         0.290177         0.315339        -0.018973
 H         2.267383        -1.732949        -0.918758
 H         1.892602        -0.295665         2.762176
 H         3.594605        -0.601691         2.433356
 H         2.212267         2.636616         0.801074
