19
Iteration:  1740
 C         4.803334         0.169945        -0.370704
 C         3.337029         0.178159        -0.235473
 C         2.261997         0.788344        -1.305718
 C         1.349663         0.261440        -0.103285
 C         2.416122        -1.030300        -0.110363
 O         2.336866        -1.641276         1.159080
 C         2.591240        -0.423120         1.990900
 C         2.448627         0.678544         0.878971
 O         2.576799         1.965455         1.570661
 H         5.314055        -0.471668         0.360697
 H         5.114241        -0.002149        -1.444061
 H         5.036460         1.183328        -0.138980
 H         2.135328         1.992356        -1.358275
 H         2.203290         0.372097        -2.249235
 H         0.328365         0.461747         0.008268
 H         2.177497        -1.787772        -0.910079
 H         1.819102        -0.337307         2.730665
 H         3.555891        -0.436385         2.457232
 H         2.304819         2.703701         0.916973
