19
Iteration:  1153charge 0 multiplicity 1
 C         4.861810         0.167466        -0.368247
 C         3.379659         0.157315        -0.269241
 C         2.256981         0.806422        -1.263198
 C         1.347848         0.260110        -0.098004
 C         2.287963        -1.010191        -0.125596
 O         2.342027        -1.644757         1.175365
 C         2.670946        -0.432515         1.961474
 C         2.413942         0.707235         0.942828
 O         2.491875         1.990416         1.527335
 H         5.419856         0.079211         0.597264
 H         5.109687        -0.676008        -1.071960
 H         5.001592         1.193389        -0.825202
 H         2.426492         1.999364        -1.083097
 H         2.143067         0.399102        -2.261473
 H         0.315446         0.237422         0.024157
 H         2.389638        -1.869473        -0.868828
 H         1.992555        -0.372542         2.878555
 H         3.784932        -0.627007         2.275209
 H         2.539185         2.582320         0.712554
