19
Iteration:  4667
 C         4.838450         0.280041        -0.464604
 C         3.292818         0.339984        -0.238913
 C         2.249161         1.368215        -0.953611
 C         1.414768         0.235759        -0.184005
 C         2.322102        -0.832482        -0.326613
 O         2.357259        -1.757003         0.876644
 C         2.485190        -0.796853         1.902854
 C         2.489841         0.494538         1.077149
 O         2.687556         1.741501         1.682507
 H         5.046707        -0.266630        -1.380782
 H         5.118111         1.346661        -0.661084
 H         5.290053        -0.187784         0.466122
 H         2.297258         2.356358        -0.469245
 H         2.257014         1.570093        -2.003291
 H         0.342073         0.072678         0.062082
 H         2.188880        -1.531884        -1.124299
 H         1.555932        -0.726845         2.462378
 H         3.284947        -0.863887         2.610741
 H         1.904760         1.745930         2.308973
