19
Iteration:   999charge 0 multiplicity 1
 C         4.899952         0.193471        -0.321169
 C         3.279037         0.135567        -0.281951
 C         2.262813         0.877468        -1.177198
 C         1.296059         0.201343        -0.098776
 C         2.281423        -1.046475        -0.146609
 O         2.354306        -1.673686         1.194437
 C         2.656329        -0.443648         1.963865
 C         2.477091         0.710544         0.983407
 O         2.560822         2.018819         1.401974
 H         5.433960        -0.638137         0.090749
 H         5.076465         0.311911        -1.425633
 H         5.225801         1.061480         0.241634
 H         2.204493         2.022845        -1.203430
 H         2.283551         0.414356        -2.107001
 H         0.283982         0.245328        -0.176656
 H         2.171851        -1.719780        -0.987115
 H         1.858239        -0.549465         2.756412
 H         3.631958        -0.376122         2.567700
 H         2.454582         2.510267         0.620913
