19
Iteration:  4825charge 0 multiplicity 1
 C         4.758751         0.389828        -0.422656
 C         3.308782         0.343858        -0.333869
 C         2.226307         1.098653        -1.162986
 C         1.363500         0.371297        -0.089769
 C         2.325324        -0.895531        -0.295982
 O         2.402917        -1.780838         0.896725
 C         2.461040        -0.709016         1.887074
 C         2.504705         0.621847         1.013677
 O         2.678065         1.638779         1.933785
 H         5.316223         1.004380        -1.184449
 H         5.296256         0.622312         0.488700
 H         5.159445        -0.582381        -0.611846
 H         2.215053         2.182968        -1.142849
 H         2.110656         0.886379        -2.241483
 H         0.294934         0.252514         0.048429
 H         2.218315        -1.465592        -1.214408
 H         1.546531        -0.618173         2.442701
 H         3.311805        -0.817587         2.571969
 H         2.957387         2.488993         1.390471
