19
Iteration:  2995
 C         4.817944         0.167864        -0.406165
 C         3.302144         0.237251        -0.348253
 C         2.294199         1.186024        -0.998640
 C         1.383680         0.343342         0.016526
 C         2.254180        -0.931226        -0.316650
 O         2.416668        -1.667681         0.970052
 C         2.620144        -0.661062         1.951860
 C         2.489803         0.528602         0.994444
 O         2.521146         1.862096         1.478241
 H         5.323623        -0.493012        -1.161954
 H         5.234605         1.230254        -0.395652
 H         5.244732        -0.188555         0.576730
 H         2.449593         2.341022        -0.757481
 H         2.106004         1.129754        -2.097554
 H         0.288702         0.277525         0.293159
 H         1.967220        -1.653868        -1.085300
 H         1.745925        -0.718056         2.708084
 H         3.484859        -0.927727         2.584903
 H         2.307636         1.787782         2.402746
