19
Iteration:  3112
 C         4.773718         0.252446        -0.445755
 C         3.311555         0.382906        -0.154869
 C         2.294517         1.163747        -1.006353
 C         1.378413         0.285942        -0.058955
 C         2.295457        -0.940427        -0.241885
 O         2.334520        -1.769357         0.872882
 C         2.550862        -0.744333         1.922846
 C         2.470725         0.490639         1.037167
 O         2.614550         1.884291         1.620150
 H         5.344177        -0.152306         0.356656
 H         4.833743        -0.207178        -1.405611
 H         5.098109         1.276863        -0.807065
 H         2.122607         2.177107        -0.797245
 H         2.345016         0.832601        -2.040000
 H         0.178185         0.278342        -0.079488
 H         2.456623        -1.396568        -1.188448
 H         1.905584        -0.669106         2.767826
 H         3.484247        -0.740777         2.470558
 H         3.240779         2.407975         1.184830
