19
Iteration:   902charge 0 multiplicity 1
 C         4.911472         0.108934        -0.468670
 C         3.334550         0.160655        -0.220288
 C         2.300949         0.957022        -1.204790
 C         1.431079         0.216123        -0.052058
 C         2.299242        -1.020584        -0.118528
 O         2.359596        -1.568363         1.183797
 C         2.634563        -0.464296         1.983362
 C         2.452421         0.650177         0.959109
 O         2.422525         1.935163         1.456360
 H         5.447135        -0.052410         0.445616
 H         4.949400        -0.808648        -1.187225
 H         5.303251         1.079786        -0.841337
 H         2.136126         2.097455        -1.084745
 H         2.170850         0.656941        -2.242079
 H         0.263096         0.311812         0.001173
 H         2.182510        -1.840226        -0.748233
 H         1.820244        -0.184396         2.681061
 H         3.638931        -0.705440         2.366694
 H         2.303495         2.625044         0.809815
