19
Iteration:  2065charge 0 multiplicity 1
 C         4.814044         0.197025        -0.364782
 C         3.314746         0.215189        -0.285834
 C         2.221990         0.815285        -1.301555
 C         1.299999         0.245330        -0.187078
 C         2.287372        -1.054889        -0.150369
 O         2.479246        -1.593549         1.126826
 C         2.507498        -0.455938         2.005045
 C         2.337960         0.701110         1.002606
 O         2.736927         1.958806         1.604668
 H         5.292968         0.002902         0.614347
 H         5.135492        -0.678739        -0.924803
 H         5.290688         1.179874        -0.704355
 H         2.057391         1.882354        -1.433474
 H         2.223966         0.105881        -2.217785
 H         0.236209         0.134869        -0.077196
 H         2.218309        -1.863248        -0.867885
 H         1.605228        -0.483885         2.612625
 H         3.390704        -0.383549         2.689898
 H         2.793515         2.651598         0.967341
