19
Iteration:   685charge 0 multiplicity 1
 C         4.815073         0.126713        -0.416367
 C         3.321494         0.238504        -0.331308
 C         2.258454         0.888753        -1.162491
 C         1.394469         0.282502        -0.046663
 C         2.408461        -1.068962        -0.185143
 O         2.465883        -1.568469         1.164076
 C         2.464956        -0.478056         2.039326
 C         2.384219         0.593280         1.002126
 O         2.554069         1.968790         1.426066
 H         5.088270        -0.132464         0.570039
 H         5.261475        -0.628217        -1.060123
 H         5.222149         1.119480        -0.654377
 H         2.271606         1.905103        -1.217435
 H         2.117489         0.520801        -2.270353
 H         0.229979         0.337410         0.099088
 H         2.255484        -1.881001        -0.809174
 H         1.638239        -0.686886         2.743128
 H         3.383602        -0.205760         2.596229
 H         2.750774         2.600833         0.743311
