19
Iteration:  4042
 C         4.857168         0.137523        -0.445242
 C         3.365702         0.353683        -0.293526
 C         2.266473         1.194235        -1.063931
 C         1.372999         0.408728        -0.082080
 C         2.378516        -0.862800        -0.320041
 O         2.405062        -1.678207         0.751080
 C         2.449306        -0.728163         1.882769
 C         2.502095         0.604456         1.065358
 O         2.500640         1.671161         1.959979
 H         5.161722        -0.484076        -1.352097
 H         5.378904         1.060981        -0.664626
 H         5.271040        -0.365250         0.403930
 H         2.103884         2.221866        -0.892529
 H         2.190521         0.933372        -2.145894
 H         0.334390         0.390914         0.096833
 H         2.408225        -1.525126        -1.251265
 H         1.462506        -0.696287         2.405413
 H         3.246865        -0.927980         2.614337
 H         2.745105         2.552058         1.467827
