19
Iteration:  2578charge 0 multiplicity 1
 C         4.774900         0.208445        -0.323384
 C         3.314357         0.228199        -0.257414
 C         2.223401         0.993567        -1.139250
 C         1.310588         0.278264        -0.091404
 C         2.326426        -0.943565        -0.216062
 O         2.496388        -1.653628         1.073143
 C         2.459999        -0.561387         1.996765
 C         2.402430         0.596958         0.985066
 O         2.709763         1.873304         1.502849
 H         5.050082         0.181826        -1.376311
 H         5.301402         1.065291         0.042500
 H         5.219533        -0.707276         0.062831
 H         2.114239         2.002796        -1.004918
 H         2.275165         0.651096        -2.205816
 H         0.244304         0.293413        -0.134403
 H         2.228566        -1.642181        -1.001086
 H         1.518417        -0.564121         2.533083
 H         3.323696        -0.572269         2.619238
 H         2.788621         2.513455         0.776353
