19
Iteration:  2064
 C         4.819806         0.197398        -0.363323
 C         3.313394         0.211655        -0.293093
 C         2.223648         0.804171        -1.315929
 C         1.293080         0.252667        -0.179718
 C         2.292853        -1.055135        -0.154761
 O         2.473285        -1.594464         1.122425
 C         2.513123        -0.454764         2.013919
 C         2.349870         0.706636         1.015235
 O         2.729426         1.958855         1.604930
 H         5.301153         0.002987         0.603049
 H         5.113045        -0.644578        -0.911219
 H         5.295479         1.149420        -0.723006
 H         2.031660         1.908437        -1.423746
 H         2.242501         0.140723        -2.204130
 H         0.187684         0.150866        -0.114290
 H         2.247108        -1.852414        -0.826733
 H         1.608992        -0.504410         2.626993
 H         3.375995        -0.405652         2.690106
 H         2.790384         2.622200         0.956194
