19
Iteration:   267
 C         4.895105         0.158878        -0.323685
 C         3.347243         0.174168        -0.291735
 C         2.242067         0.814587        -1.270627
 C         1.360298         0.236646        -0.105429
 C         2.254220        -1.069756        -0.070049
 O         2.340449        -1.551997         1.171574
 C         2.644074        -0.452973         1.989607
 C         2.439848         0.726869         0.948465
 O         2.487850         1.975306         1.453192
 H         5.358261        -0.295689         0.634150
 H         5.147503        -0.463060        -1.199959
 H         5.302697         1.102240        -0.498048
 H         2.330974         1.888951        -1.496476
 H         2.414938         0.189279        -2.200566
 H         0.241058         0.405044        -0.116129
 H         2.143328        -1.938298        -0.824728
 H         2.039131        -0.428708         2.897198
 H         3.673702        -0.492469         2.330486
 H         2.992283         2.549337         0.938024
