19
Iteration:  2898charge 0 multiplicity 1
 C         4.782477         0.222242        -0.443853
 C         3.320237         0.271322        -0.220145
 C         2.317734         1.102769        -1.050087
 C         1.411794         0.319628        -0.040123
 C         2.327165        -0.882997        -0.308798
 O         2.328769        -1.668628         0.986566
 C         2.607482        -0.734357         2.022560
 C         2.476123         0.538586         1.086491
 O         2.474118         1.888161         1.478656
 H         5.203501         1.153130        -0.909623
 H         5.580479         0.066095         0.348106
 H         4.890850        -0.656132        -1.146906
 H         2.352606         2.249785        -0.863186
 H         2.189223         0.688350        -2.035272
 H         0.288564         0.422104         0.070764
 H         2.112335        -1.671841        -1.082594
 H         1.737953        -0.681486         2.697631
 H         3.615989        -0.968932         2.489861
 H         3.358931         2.185759         1.407970
