19
Iteration:  1332charge 0 multiplicity 1
 C         4.800682         0.181788        -0.371814
 C         3.303185         0.125196        -0.261317
 C         2.296193         0.903876        -1.185864
 C         1.320084         0.226444        -0.098344
 C         2.308777        -1.052598        -0.106243
 O         2.533928        -1.578864         1.146616
 C         2.435686        -0.453871         2.061898
 C         2.471708         0.664029         0.935350
 O         2.626976         1.971254         1.372886
 H         5.075639        -0.342527         0.568001
 H         5.333330        -0.342969        -1.156117
 H         5.202769         1.217604        -0.394820
 H         2.220470         2.045760        -1.132745
 H         2.177078         0.443346        -2.173046
 H         0.355895         0.158050         0.168418
 H         2.121352        -1.759898        -0.995488
 H         1.452563        -0.427495         2.573936
 H         3.293443        -0.681484         2.714204
 H         2.069555         2.620247         0.805255
