19
Iteration:   665
 C         4.827666         0.187874        -0.432534
 C         3.321907         0.195384        -0.218591
 C         2.294829         0.857062        -1.181929
 C         1.388580         0.209167        -0.160150
 C         2.300238        -1.033423        -0.121206
 O         2.353085        -1.659481         1.169257
 C         2.550590        -0.422577         2.027584
 C         2.520193         0.675494         0.974352
 O         2.501910         1.960086         1.478110
 H         5.450953         0.010419         0.425976
 H         5.118252        -0.492709        -1.189503
 H         5.128795         1.221872        -0.841763
 H         2.258407         1.925255        -1.234786
 H         2.162279         0.587097        -2.249893
 H         0.284168        -0.019688        -0.057772
 H         2.314242        -1.703210        -0.917495
 H         1.824026        -0.159731         2.824737
 H         3.594101        -0.529005         2.407180
 H         2.832876         2.664070         0.807710
