19
Iteration:  4923charge 0 multiplicity 1
 C         4.660699         0.244154        -0.401364
 C         3.282349         0.334868        -0.223971
 C         2.237633         1.213734        -1.121157
 C         1.419865         0.353175        -0.117235
 C         2.356147        -0.884193        -0.343561
 O         2.504076        -1.759758         0.832447
 C         2.519778        -0.729951         1.900837
 C         2.336010         0.622097         1.057486
 O         2.700683         1.682018         1.902785
 H         4.817293        -0.284028        -1.412186
 H         5.306263         1.158818        -0.513374
 H         5.147041        -0.404024         0.308381
 H         2.256628         2.272834        -0.905856
 H         2.252590         1.097187        -2.216888
 H         0.328330         0.390028        -0.102073
 H         2.316657        -1.367394        -1.300077
 H         1.773199        -0.934422         2.625563
 H         3.515344        -0.695063         2.395581
 H         2.368253         2.497902         1.327075
