19
Iteration:  2913
 C         4.829583         0.252179        -0.486784
 C         3.320787         0.214012        -0.279541
 C         2.286375         1.063777        -1.080523
 C         1.440779         0.323947        -0.027362
 C         2.253850        -0.977921        -0.176728
 O         2.354627        -1.764906         0.959712
 C         2.486193        -0.607981         1.910284
 C         2.543951         0.616319         1.006152
 O         2.507208         1.893020         1.630427
 H         5.050897         1.140407        -1.072502
 H         5.209332         0.427576         0.508447
 H         5.286230        -0.612057        -0.890207
 H         2.388604         2.067256        -0.881158
 H         2.166103         0.888370        -2.190910
 H         0.404413         0.393686         0.140115
 H         2.257364        -1.528255        -1.174365
 H         1.672494        -0.729943         2.677930
 H         3.494671        -0.721105         2.398453
 H         3.435712         2.350314         1.629485
