19
Iteration:   773
 C         4.804763         0.170077        -0.453091
 C         3.346142         0.186999        -0.257800
 C         2.358114         0.831101        -1.156078
 C         1.471014         0.266133        -0.084435
 C         2.310690        -1.058297        -0.143225
 O         2.277871        -1.723184         1.173609
 C         2.684710        -0.365962         2.024897
 C         2.438057         0.730330         0.942771
 O         2.451883         1.969086         1.475340
 H         5.306551        -0.716747        -0.155402
 H         5.123447         0.397034        -1.452384
 H         5.190060         1.083864         0.103296
 H         2.510285         1.857750        -1.175611
 H         2.027144         0.399787        -2.252954
 H         0.301242         0.108531        -0.015965
 H         2.080812        -1.780835        -0.857435
 H         1.863565        -0.380134         2.749878
 H         3.646602        -0.218282         2.540919
 H         2.410112         2.532589         0.637555
