19
Iteration:  3133
 C         4.831510         0.246640        -0.417799
 C         3.271276         0.208685        -0.280227
 C         2.278027         1.128047        -1.073879
 C         1.407490         0.346297        -0.036437
 C         2.261906        -0.906934        -0.312432
 O         2.343857        -1.685591         0.882460
 C         2.654927        -0.758569         1.888506
 C         2.479813         0.602271         1.071597
 O         2.483832         1.882532         1.685117
 H         5.181115         0.149591         0.601755
 H         5.179723        -0.598277        -0.990501
 H         5.261429         1.105626        -1.008144
 H         2.419887         2.115865        -0.803145
 H         2.032834         0.843332        -2.090352
 H         0.278375         0.319955         0.205019
 H         2.107037        -1.568388        -1.160410
 H         2.066709        -0.801109         2.791978
 H         3.651149        -0.876549         2.368864
 H         3.450352         2.106927         1.900215
