19
Iteration:  1577charge 0 multiplicity 1
 C         4.832925         0.106909        -0.392644
 C         3.357807         0.143462        -0.316726
 C         2.234433         0.888026        -1.113379
 C         1.393086         0.183926        -0.110230
 C         2.256179        -1.039154        -0.188546
 O         2.524886        -1.625275         1.168953
 C         2.427632        -0.367669         2.000763
 C         2.484136         0.662310         0.981843
 O         2.578686         2.005500         1.463738
 H         5.381491        -0.042930         0.588491
 H         5.356635        -0.557027        -1.195341
 H         5.083093         1.148673        -0.635181
 H         2.163230         1.964990        -1.016642
 H         2.241406         0.631685        -2.248725
 H         0.358470         0.279794        -0.001299
 H         2.204760        -1.696283        -1.002918
 H         1.444131        -0.685861         2.438018
 H         3.104523        -0.252329         2.844466
 H         2.280008         2.536236         0.751609
