19
Iteration:  3380
 C         4.829468         0.272162        -0.443895
 C         3.307052         0.308559        -0.285559
 C         2.307572         1.199167        -1.084059
 C         1.393111         0.353990        -0.110212
 C         2.266101        -0.871212        -0.352507
 O         2.337527        -1.679145         0.880729
 C         2.618001        -0.656705         1.845138
 C         2.484896         0.528183         1.037374
 O         2.557962         1.706675         1.875185
 H         4.961897        -0.549828        -1.156036
 H         5.248947         1.220268        -0.963614
 H         5.268909        -0.006477         0.481735
 H         2.374471         2.267103        -0.911769
 H         2.153269         0.829740        -2.110373
 H         0.336767         0.326443         0.050461
 H         1.984628        -1.383664        -1.345291
 H         1.747632        -0.845155         2.496987
 H         3.566921        -0.868612         2.345850
 H         2.655710         1.306246         2.714806
