19
Iteration:  4421charge 0 multiplicity 1
 C         4.748757         0.227692        -0.320113
 C         3.311982         0.379953        -0.275759
 C         2.275885         1.172255        -0.967535
 C         1.441745         0.313518        -0.124768
 C         2.265033        -0.871917        -0.375974
 O         2.393421        -1.694368         0.794934
 C         2.474744        -0.728356         1.859998
 C         2.520555         0.582114         1.024239
 O         2.693060         1.674697         1.790567
 H         5.186428        -0.026664        -1.367715
 H         5.172523         1.196002         0.164160
 H         5.015212        -0.525162         0.469967
 H         2.261667         2.267796        -0.680042
 H         2.094077         1.223491        -2.047960
 H         0.319581         0.389749        -0.121307
 H         2.196956        -1.560153        -1.249187
 H         1.578828        -0.744936         2.521603
 H         3.386928        -0.771945         2.464768
 H         2.051207         2.298809         1.605733
