19
Iteration:  1113
 C         4.841304         0.094237        -0.483950
 C         3.316787         0.122293        -0.267014
 C         2.253600         0.915686        -1.160065
 C         1.387839         0.230151        -0.102501
 C         2.378474        -1.013301        -0.119357
 O         2.419586        -1.601412         1.176126
 C         2.512240        -0.405971         2.007404
 C         2.488512         0.663541         0.984393
 O         2.464992         1.967550         1.472123
 H         5.440822        -0.127883         0.357936
 H         5.152373        -0.599667        -1.232576
 H         5.357315         1.078915        -0.708822
 H         2.468943         1.914263        -1.102822
 H         2.083836         0.503711        -2.206238
 H         0.228773         0.165245         0.047147
 H         2.460805        -1.637195        -0.997538
 H         1.697481        -0.468598         2.736260
 H         3.444911        -0.307578         2.544557
 H         2.464124         2.685850         0.863510
