19
Iteration:   383
 C         4.866645         0.053600        -0.389180
 C         3.289998         0.212227        -0.320846
 C         2.311284         0.815383        -1.332516
 C         1.401795         0.257651        -0.133820
 C         2.371516        -1.030693        -0.110440
 O         2.388562        -1.568189         1.257859
 C         2.585263        -0.398081         1.997843
 C         2.406025         0.686249         0.948743
 O         2.438197         1.956712         1.541342
 H         5.144663        -0.818795         0.213422
 H         5.085530        -0.233438        -1.420557
 H         5.441550         1.052025        -0.130075
 H         2.414206         1.953899        -1.226548
 H         2.229820         0.345896        -2.335278
 H         0.405076         0.634499        -0.056519
 H         2.329889        -1.863316        -0.863166
 H         1.866715        -0.383564         2.836260
 H         3.642185        -0.305807         2.389751
 H         2.516791         2.593071         0.870783
