19
Iteration:   355
 C         4.820360         0.101592        -0.412689
 C         3.298716         0.130687        -0.280592
 C         2.292747         0.845261        -1.168850
 C         1.450216         0.194138        -0.077467
 C         2.346355        -1.028037        -0.207965
 O         2.490531        -1.604941         1.200334
 C         2.406289        -0.381184         2.084599
 C         2.492823         0.675322         1.023474
 O         2.546037         2.036506         1.388268
 H         5.274203        -0.824972         0.024999
 H         4.961998        -0.059250        -1.508228
 H         5.276204         0.985661        -0.144423
 H         2.340981         1.886662        -1.045088
 H         2.189965         0.422434        -2.183190
 H         0.349361         0.437561        -0.173797
 H         2.114839        -1.724393        -1.052336
 H         1.404657        -0.381934         2.549568
 H         3.179755        -0.363526         2.832663
 H         2.143832         2.610786         0.737352
