19
Iteration:  4413
 C         4.769492         0.223687        -0.346962
 C         3.271475         0.335386        -0.252625
 C         2.284148         1.193193        -1.070663
 C         1.387542         0.405023        -0.089168
 C         2.337161        -0.872015        -0.329988
 O         2.409535        -1.716360         0.821526
 C         2.502382        -0.756436         1.798324
 C         2.458648         0.555758         1.044204
 O         2.662381         1.713686         1.864137
 H         5.303595        -0.145625        -1.286782
 H         5.315173         1.099828        -0.133552
 H         5.066563        -0.498847         0.394066
 H         2.360640         2.268744        -0.878871
 H         2.171667         0.993276        -2.199073
 H         0.313685         0.372270        -0.159744
 H         2.195578        -1.422890        -1.345450
 H         1.617485        -0.672591         2.474032
 H         3.398215        -1.069223         2.363139
 H         2.083881         2.440985         1.740316
