19
Iteration:  2931charge 0 multiplicity 1
 C         4.874235         0.308605        -0.447896
 C         3.329152         0.197619        -0.360170
 C         2.248021         0.972083        -1.163094
 C         1.378909         0.324285        -0.096055
 C         2.263046        -1.024327        -0.321899
 O         2.406543        -1.646140         1.005322
 C         2.494372        -0.603764         1.931741
 C         2.461456         0.630573         1.008400
 O         2.584726         1.866165         1.803633
 H         5.170847         0.875251        -1.373273
 H         5.306018         0.626485         0.547800
 H         5.319325        -0.692879        -0.682640
 H         2.297061         2.132233        -1.205715
 H         1.977972         0.769335        -2.176395
 H         0.288308         0.297901         0.132592
 H         1.853490        -1.761497        -1.084450
 H         1.625499        -0.323220         2.526294
 H         3.211635        -0.707469         2.779878
 H         3.599581         1.945617         1.955114
