19
Iteration:  2088
 C         4.713657         0.210839        -0.310890
 C         3.268072         0.148885        -0.347122
 C         2.239838         0.858034        -1.259506
 C         1.299706         0.233414        -0.079049
 C         2.350334        -1.037257        -0.144621
 O         2.491767        -1.606972         1.150692
 C         2.450134        -0.384040         1.985527
 C         2.507890         0.693396         0.959327
 O         2.719341         1.878265         1.519218
 H         5.215520        -0.154356         0.593420
 H         5.078060        -0.493607        -1.110256
 H         5.084570         1.264807        -0.516221
 H         2.202417         1.868081        -1.090906
 H         2.234169         0.563040        -2.390760
 H         0.246944         0.239744        -0.094136
 H         2.386055        -1.856329        -0.916748
 H         1.508746        -0.327546         2.546816
 H         3.308878        -0.378316         2.723859
 H         2.511076         2.597204         0.870804
