19
Iteration:  1585charge 0 multiplicity 1
 C         4.817430         0.127062        -0.366170
 C         3.326590         0.178015        -0.266750
 C         2.263119         0.895432        -1.176715
 C         1.382920         0.182434        -0.082122
 C         2.336152        -1.037165        -0.166046
 O         2.533109        -1.603178         1.184333
 C         2.410415        -0.418408         1.972022
 C         2.432897         0.683634         0.918747
 O         2.588444         1.968615         1.461803
 H         5.393714        -0.191901         0.570627
 H         4.976259        -0.653199        -1.183169
 H         5.283566         1.040846        -0.816252
 H         2.241535         2.022269        -1.123401
 H         2.210393         0.584429        -2.117346
 H         0.375062         0.271834         0.211174
 H         2.129825        -1.697694        -1.012151
 H         1.454852        -0.350797         2.527551
 H         3.263327        -0.500532         2.646909
 H         2.202482         2.640878         0.940134
