19
Iteration:  1171
 C         4.791642         0.210168        -0.366557
 C         3.261278         0.168091        -0.311079
 C         2.241304         0.785794        -1.259647
 C         1.445092         0.256217        -0.102500
 C         2.280712        -1.049158        -0.135697
 O         2.425265        -1.559855         1.138438
 C         2.579311        -0.439192         2.019959
 C         2.456585         0.674188         0.959246
 O         2.584301         1.950823         1.549258
 H         5.108966        -0.056747         0.693949
 H         5.277170        -0.542772        -1.035213
 H         5.117360         1.196301        -0.621464
 H         2.359259         1.822747        -1.507546
 H         2.220858         0.049940        -2.118253
 H         0.288992         0.211470        -0.072745
 H         2.097543        -1.778737        -1.003440
 H         1.820349        -0.542193         2.761102
 H         3.531535        -0.195095         2.400279
 H         2.457021         2.654297         0.836165
