19
Iteration:    31charge 0 multiplicity 1
 C         4.845336         0.095683        -0.488431
 C         3.327846         0.164044        -0.296286
 C         2.329906         0.826062        -1.210167
 C         1.411966         0.260628        -0.075660
 C         2.332180        -1.002927        -0.085760
 O         2.289649        -1.630826         1.247156
 C         2.625925        -0.404002         1.988333
 C         2.478567         0.690918         0.947001
 O         2.473548         1.977358         1.466138
 H         5.257808        -0.258819         0.373969
 H         5.325180        -0.422097        -1.332268
 H         5.244233         1.151990        -0.573290
 H         2.411290         1.977168        -1.134257
 H         2.368093         0.459712        -2.168747
 H         0.315811         0.361354         0.026392
 H         2.299158        -1.757612        -0.880584
 H         1.739284        -0.360939         2.662967
 H         3.635522        -0.567341         2.361099
 H         2.068583         2.651609         0.885488
