19
Iteration:  2858
 C         4.763916         0.083016        -0.363305
 C         3.286207         0.261700        -0.368524
 C         2.239651         1.099692        -1.150416
 C         1.395514         0.345517        -0.028170
 C         2.290268        -0.998945        -0.250337
 O         2.465494        -1.681519         1.013219
 C         2.615760        -0.579979         1.904248
 C         2.545608         0.634796         0.972011
 O         2.450992         1.896055         1.653587
 H         5.245426         0.948671         0.136121
 H         5.003120        -0.870434         0.058089
 H         5.045286         0.135648        -1.374973
 H         2.359184         2.141847        -1.078358
 H         2.076159         0.765094        -2.218393
 H         0.333198         0.423537         0.068057
 H         2.158249        -1.628624        -1.234642
 H         1.749798        -0.558482         2.596647
 H         3.539007        -0.543678         2.506131
 H         3.281918         1.950037         2.256962
