19
Iteration:  1137charge 0 multiplicity 1
 C         4.826995         0.173996        -0.465137
 C         3.307203         0.242668        -0.284146
 C         2.325582         0.940762        -1.187075
 C         1.423443         0.166333        -0.135815
 C         2.301722        -1.065148        -0.116442
 O         2.323186        -1.603653         1.222152
 C         2.643920        -0.452931         2.009958
 C         2.517167         0.645655         0.997630
 O         2.438557         1.945854         1.459202
 H         5.216075        -0.000673         0.573106
 H         5.180852        -0.699920        -1.013435
 H         5.479127         0.956712        -0.778675
 H         2.184475         1.972432        -1.328764
 H         2.213805         0.443062        -2.200779
 H         0.247485         0.350624        -0.063597
 H         2.056263        -1.759080        -0.924601
 H         2.028505        -0.393756         2.857691
 H         3.636623        -0.525881         2.373719
 H         2.512711         2.710856         0.757128
