19
Iteration:  4462charge 0 multiplicity 1
 C         4.758439         0.358500        -0.243232
 C         3.303844         0.283274        -0.279166
 C         2.334412         1.137946        -1.017495
 C         1.423864         0.394716        -0.058053
 C         2.243599        -0.876777        -0.323152
 O         2.334644        -1.786535         0.740721
 C         2.488944        -0.805717         1.898774
 C         2.483054         0.486601         1.076459
 O         2.731008         1.837799         1.698625
 H         5.139897         0.746617        -1.135169
 H         5.297473         0.921400         0.566254
 H         5.193971        -0.656838        -0.245792
 H         2.230455         2.239883        -1.005081
 H         2.231100         0.934291        -2.074643
 H         0.339970         0.609417         0.149030
 H         2.055702        -1.320525        -1.249392
 H         1.693935        -1.132025         2.568650
 H         3.496484        -0.952391         2.323241
 H         1.945353         2.383663         1.393972
