19
Iteration:   897
 C         4.906131         0.090581        -0.469494
 C         3.316288         0.187368        -0.254145
 C         2.329410         0.956665        -1.196560
 C         1.410460         0.198704        -0.091993
 C         2.262539        -1.026279        -0.151436
 O         2.348993        -1.573008         1.207477
 C         2.649114        -0.469849         2.029493
 C         2.447591         0.668158         0.964068
 O         2.434750         1.953104         1.474993
 H         5.446549        -0.063894         0.509496
 H         5.238790        -0.700026        -1.145078
 H         5.279267         1.050256        -0.819267
 H         2.215285         2.045439        -1.159995
 H         2.083250         0.758215        -2.269620
 H         0.400808        -0.009647         0.183512
 H         2.168647        -1.759384        -1.037513
 H         1.904807        -0.239554         2.815019
 H         3.714347        -0.634405         2.364189
 H         2.246871         2.553839         0.662758
