19
Iteration:  3197
 C         4.754254         0.170334        -0.490194
 C         3.331437         0.336053        -0.147699
 C         2.209099         1.120825        -1.035370
 C         1.361461         0.322956        -0.094557
 C         2.327574        -0.862061        -0.304185
 O         2.477135        -1.692434         0.848147
 C         2.519714        -0.694125         1.874626
 C         2.343048         0.543040         1.091000
 O         2.733052         1.853730         1.734618
 H         5.502873         0.679430         0.150507
 H         5.032583        -0.895824        -0.313840
 H         4.984380         0.356754        -1.609881
 H         2.136506         2.175226        -0.917411
 H         2.161676         0.780937        -2.120849
 H         0.289771         0.171080        -0.093581
 H         2.405631        -1.402181        -1.277769
 H         1.691732        -0.921570         2.599352
 H         3.527976        -0.714777         2.413884
 H         1.855876         2.292589         2.096830
