19
Iteration:   312
 C         4.802464         0.189302        -0.400378
 C         3.345418         0.156263        -0.248451
 C         2.296618         0.779683        -1.243068
 C         1.414650         0.172198        -0.165018
 C         2.267565        -1.091216        -0.144898
 O         2.424018        -1.533964         1.175416
 C         2.433029        -0.376048         2.016815
 C         2.452583         0.642150         0.968427
 O         2.681911         2.027733         1.489231
 H         5.178879        -0.515685         0.403382
 H         5.137354        -0.117572        -1.436072
 H         5.005035         1.195815        -0.154890
 H         2.232572         1.914500        -1.160245
 H         2.033549         0.372388        -2.241360
 H         0.347996         0.257216         0.137545
 H         2.282378        -1.996741        -0.752967
 H         1.583843        -0.305006         2.720505
 H         3.352331        -0.427682         2.560309
 H         2.115022         2.404250         0.864353
