19
Iteration:  1169charge 0 multiplicity 1
 C         4.798317         0.199615        -0.362526
 C         3.253223         0.149306        -0.294478
 C         2.252979         0.793610        -1.263682
 C         1.440793         0.249644        -0.098741
 C         2.303160        -1.051039        -0.136692
 O         2.415234        -1.555527         1.134801
 C         2.587653        -0.444387         2.008865
 C         2.449120         0.677213         0.966765
 O         2.574529         1.959186         1.542313
 H         5.161801        -0.017621         0.642403
 H         5.287717        -0.485861        -1.017719
 H         5.122160         1.180535        -0.662760
 H         2.288939         1.763894        -1.507390
 H         2.181094         0.098291        -2.176162
 H         0.267174         0.249965        -0.058937
 H         2.038778        -1.690954        -0.973990
 H         1.846406        -0.520826         2.787808
 H         3.570380        -0.213805         2.379052
 H         2.479571         2.637186         0.900401
