19
Iteration:  3240
 C         4.872987         0.376359        -0.427801
 C         3.300430         0.203425        -0.391198
 C         2.288408         1.138292        -0.995866
 C         1.405051         0.359073         0.063084
 C         2.184594        -0.954048        -0.323492
 O         2.355905        -1.721653         0.867262
 C         2.523791        -0.746055         1.880175
 C         2.595023         0.580121         1.054857
 O         2.597429         1.746338         1.749192
 H         5.095269         1.452096        -0.604186
 H         5.403574         0.070689         0.485502
 H         5.276768        -0.214467        -1.319551
 H         2.504758         2.165802        -0.794820
 H         1.943559         1.028648        -2.092612
 H         0.402825         0.565565         0.274878
 H         1.831576        -1.586829        -1.201635
 H         1.653491        -0.672414         2.541770
 H         3.512211        -0.823004         2.371789
 H         2.184898         2.464018         1.134844
