19
Iteration:  1114charge 0 multiplicity 1
 C         4.842322         0.093135        -0.476207
 C         3.313746         0.130292        -0.272543
 C         2.251038         0.913508        -1.160737
 C         1.400788         0.233105        -0.100916
 C         2.370021        -1.010248        -0.121410
 O         2.411297        -1.595369         1.175229
 C         2.524148        -0.413698         2.020800
 C         2.489479         0.654368         0.976651
 O         2.460676         1.966740         1.471874
 H         5.466254        -0.126745         0.376503
 H         5.145154        -0.594732        -1.246074
 H         5.320465         1.072759        -0.742354
 H         2.469042         1.907060        -1.112362
 H         2.102133         0.549492        -2.238949
 H         0.231868         0.129502         0.058433
 H         2.494179        -1.644469        -0.976630
 H         1.719484        -0.449191         2.729116
 H         3.426359        -0.291015         2.543795
 H         2.472159         2.644887         0.847917
