19
Iteration:  3181
 C         4.741276         0.100428        -0.440378
 C         3.254182         0.374252        -0.282398
 C         2.240697         1.091120        -1.149372
 C         1.327267         0.294556        -0.109690
 C         2.337104        -0.858956        -0.315175
 O         2.472189        -1.695287         0.847626
 C         2.578626        -0.660001         1.913425
 C         2.481242         0.680856         1.107161
 O         2.635555         1.837430         1.804620
 H         5.320668         0.544218         0.378831
 H         5.046967        -0.943704        -0.624831
 H         5.003629         0.554530        -1.365142
 H         2.229631         2.238090        -1.056535
 H         2.232251         0.653192        -2.134119
 H         0.203701         0.310175        -0.032932
 H         2.273901        -1.545531        -1.174846
 H         1.877533        -0.882343         2.740447
 H         3.504502        -0.799626         2.463909
 H         2.166233         1.681066         2.655865
