19
Iteration:  4809
 C         4.975811         0.383607        -0.392801
 C         3.321848         0.296180        -0.271326
 C         2.110006         1.122086        -1.131426
 C         1.440204         0.325120        -0.036081
 C         2.177017        -0.920664        -0.311322
 O         2.447125        -1.710409         0.812474
 C         2.378237        -0.733888         1.897803
 C         2.554199         0.508555         1.068083
 O         2.664922         1.735092         1.825759
 H         4.959509         1.201613        -1.069850
 H         5.284097         0.907611         0.565961
 H         5.456852        -0.584586        -0.770062
 H         2.118950         2.237479        -1.056531
 H         1.962703         0.712969        -2.135666
 H         0.328819         0.494624         0.177899
 H         1.979204        -1.581114        -1.188602
 H         1.346325        -0.814164         2.357274
 H         3.204277        -0.958931         2.584498
 H         3.186579         2.550689         1.424207
