19
Iteration:  4468charge 0 multiplicity 1
 C         4.763997         0.360675        -0.254165
 C         3.262352         0.267806        -0.206443
 C         2.351837         1.144206        -1.092431
 C         1.414910         0.384557        -0.023933
 C         2.231575        -0.902201        -0.370381
 O         2.333589        -1.745604         0.714085
 C         2.522969        -0.798782         1.910097
 C         2.493892         0.518157         1.078090
 O         2.720867         1.825253         1.747769
 H         5.089435         0.804917        -1.283005
 H         5.237953         0.798485         0.604473
 H         5.218222        -0.640422        -0.268725
 H         2.357382         2.239444        -1.133459
 H         2.399618         0.706640        -2.149027
 H         0.361971         0.442605         0.169895
 H         2.002572        -1.437164        -1.359822
 H         1.704874        -0.826332         2.678934
 H         3.494656        -1.073572         2.359622
 H         1.871327         2.357491         1.473406
