19
Iteration:  4237
 C         4.870129         0.263180        -0.353825
 C         3.318638         0.267620        -0.236091
 C         2.339027         1.159803        -0.973585
 C         1.429935         0.384682        -0.023055
 C         2.249175        -0.895565        -0.366719
 O         2.337217        -1.689336         0.793980
 C         2.527937        -0.791920         1.848029
 C         2.439679         0.548816         1.128897
 O         2.556202         1.794285         1.732216
 H         5.073994         0.843855        -1.273212
 H         5.349593         0.647907         0.466073
 H         5.403530        -0.641062        -0.506180
 H         2.533411         2.217832        -0.879525
 H         2.206500         0.968415        -2.068936
 H         0.327486         0.439794        -0.123510
 H         1.781771        -1.545649        -1.206006
 H         1.732706        -0.899322         2.622676
 H         3.490768        -1.079678         2.291758
 H         2.809765         2.468828         0.952566
