19
Iteration:  1072
 C         4.766652         0.114007        -0.436375
 C         3.320798         0.198151        -0.276868
 C         2.236234         0.808489        -1.273298
 C         1.341637         0.255310        -0.142941
 C         2.394837        -0.989542        -0.148782
 O         2.547749        -1.566083         1.178966
 C         2.430800        -0.419126         2.049557
 C         2.479043         0.708322         0.955883
 O         2.590341         1.923710         1.571244
 H         5.065172        -0.722548         0.314860
 H         5.078907        -0.068420        -1.472123
 H         5.147741         1.049256        -0.047202
 H         2.312544         1.831302        -1.642724
 H         2.092226         0.184426        -2.206471
 H         0.185920         0.253637        -0.044748
 H         2.310674        -1.809740        -0.814263
 H         1.511237        -0.227539         2.571074
 H         3.186387        -0.530153         2.759391
 H         2.372023         2.560027         0.834897
