19
Iteration:  4694
 C         4.802954         0.179260        -0.436606
 C         3.279565         0.308408        -0.215209
 C         2.275703         1.187069        -1.009407
 C         1.394329         0.358838        -0.014908
 C         2.352150        -0.865341        -0.409146
 O         2.490637        -1.686663         0.783885
 C         2.500684        -0.752833         1.824023
 C         2.383408         0.560581         1.095692
 O         2.629749         1.778401         1.834442
 H         4.934456        -0.030678        -1.521297
 H         5.307417         1.113929        -0.252426
 H         5.166987        -0.650137         0.131936
 H         2.493489         2.283494        -0.889007
 H         2.246761         0.926898        -2.123952
 H         0.312044         0.450248         0.201925
 H         2.084671        -1.508077        -1.277128
 H         1.611721        -0.962115         2.485097
 H         3.422871        -0.664660         2.478955
 H         1.739485         2.202632         1.833857
