19
Iteration:  2488charge 0 multiplicity 1
 C         4.826915         0.135919        -0.444345
 C         3.311564         0.169083        -0.311701
 C         2.276459         0.958119        -1.211112
 C         1.442910         0.285140        -0.122521
 C         2.359568        -1.027054        -0.210562
 O         2.400438        -1.568387         1.121548
 C         2.551739        -0.448518         2.007648
 C         2.437602         0.668537         0.921637
 O         2.484321         1.842644         1.694572
 H         5.277895         0.743041        -1.282643
 H         5.330413         0.481273         0.453080
 H         4.930202        -0.911206        -0.821492
 H         2.339258         2.029196        -1.215862
 H         2.276289         0.310589        -2.147093
 H         0.293932         0.290499         0.041267
 H         2.174449        -1.739149        -0.955901
 H         1.703535        -0.372918         2.702496
 H         3.533054        -0.406333         2.504063
 H         2.603802         2.636755         1.097898
