19
Iteration:  4144
 C         4.862431         0.224918        -0.316327
 C         3.394627         0.238790        -0.349222
 C         2.274949         1.195807        -1.074382
 C         1.381502         0.376230        -0.026262
 C         2.248677        -0.854501        -0.379877
 O         2.356995        -1.713463         0.764697
 C         2.482603        -0.732150         1.881800
 C         2.538943         0.613368         1.040811
 O         2.585581         1.669792         1.871173
 H         5.401257        -0.169875        -1.156341
 H         5.137856         1.298486        -0.049230
 H         5.297836        -0.174057         0.642714
 H         2.277841         2.327682        -1.058460
 H         2.139216         1.070545        -2.159557
 H         0.335726         0.614472         0.184835
 H         1.974712        -1.346837        -1.291061
 H         1.623175        -0.602810         2.580752
 H         3.392097        -1.059269         2.457791
 H         2.239743         2.322113         1.327966
