19
Iteration:  1248charge 0 multiplicity 1
 C         4.853065         0.153631        -0.447850
 C         3.315693         0.176008        -0.235131
 C         2.344351         0.871396        -1.201193
 C         1.447552         0.259908        -0.106215
 C         2.324651        -1.086883        -0.108195
 O         2.412397        -1.662767         1.221129
 C         2.549969        -0.431339         2.005927
 C         2.465534         0.676952         0.967614
 O         2.417828         2.016847         1.447323
 H         5.278831        -0.856971        -0.154863
 H         4.912259         0.185551        -1.560489
 H         5.411647         0.837309         0.153329
 H         2.173336         1.935512        -1.339204
 H         1.941458         0.501895        -2.269681
 H         0.254709         0.518694         0.004787
 H         2.126894        -1.796163        -1.026601
 H         1.912756        -0.186657         2.873180
 H         3.577909        -0.404614         2.414948
 H         2.617857         2.508552         0.694077
