19
Iteration:  3735charge 0 multiplicity 1
 C         4.861952         0.231110        -0.378968
 C         3.339628         0.380868        -0.252230
 C         2.275567         1.036095        -1.102421
 C         1.413893         0.385727        -0.058493
 C         2.302784        -0.726580        -0.286582
 O         2.308143        -1.723904         0.689843
 C         2.485911        -0.703874         1.865783
 C         2.471973         0.634354         1.085017
 O         2.594251         1.670927         1.928944
 H         5.182475        -0.747414        -0.883914
 H         5.431686         0.852127        -1.051698
 H         5.332397         0.040765         0.630270
 H         2.266882         2.113806        -1.195204
 H         2.223591         0.666034        -2.135679
 H         0.324120         0.280645         0.106046
 H         2.214932        -1.276981        -1.228379
 H         1.753024        -1.025532         2.637959
 H         3.470470        -1.027621         2.268264
 H         2.639305         2.464189         1.464128
