19
Iteration:  2685charge 0 multiplicity 1
 C         4.809654         0.083500        -0.439858
 C         3.297999         0.218488        -0.247003
 C         2.202450         1.040898        -1.069441
 C         1.383683         0.328206        -0.004611
 C         2.337445        -0.929526        -0.215892
 O         2.530074        -1.675521         1.011836
 C         2.523912        -0.579528         1.943387
 C         2.468366         0.632795         1.012528
 O         2.491745         1.945398         1.429078
 H         5.008010        -1.011316        -0.585526
 H         5.264417         0.706724        -1.223670
 H         5.206091         0.526615         0.511970
 H         2.526413         2.065545        -1.092244
 H         2.011097         0.709956        -2.134298
 H         0.307185         0.357423         0.193674
 H         2.040997        -1.517895        -0.953003
 H         1.645645        -0.680715         2.625097
 H         3.511384        -0.654599         2.577949
 H         2.949582         1.990720         2.240234
