19
Iteration:  1029
 C         4.809323         0.222875        -0.322062
 C         3.250823         0.157035        -0.317918
 C         2.283443         0.853599        -1.180113
 C         1.384834         0.215724        -0.125790
 C         2.305255        -1.048016        -0.157128
 O         2.328038        -1.591057         1.206432
 C         2.681481        -0.435146         2.019727
 C         2.520361         0.624504         0.982864
 O         2.520431         1.974928         1.422426
 H         5.169474        -0.779601        -0.001469
 H         5.213863         0.403417        -1.325158
 H         5.147085         1.026669         0.276997
 H         2.176246         1.932078        -1.305692
 H         2.231882         0.411885        -2.185430
 H         0.318740         0.404325        -0.235820
 H         2.254981        -1.789430        -0.922469
 H         1.920449        -0.596245         2.767403
 H         3.658156        -0.462095         2.481503
 H         2.605261         2.565961         0.574718
