19
Iteration:  3808
 C         4.848931         0.203903        -0.321653
 C         3.270998         0.340421        -0.249254
 C         2.249467         1.144861        -1.047994
 C         1.441643         0.447431        -0.085595
 C         2.350792        -0.829637        -0.347550
 O         2.333429        -1.744684         0.748554
 C         2.465037        -0.819630         1.884455
 C         2.493312         0.562766         1.017352
 O         2.680377         1.785579         1.839512
 H         5.192162        -0.598518        -0.922956
 H         5.422961         1.091285        -0.845741
 H         5.279824         0.171586         0.745782
 H         2.110361         2.206289        -0.750595
 H         2.065326         0.768076        -2.178200
 H         0.295063         0.402487        -0.008799
 H         2.126067        -1.321065        -1.244983
 H         1.566955        -0.990761         2.532296
 H         3.301287        -1.096362         2.556426
 H         2.086064         2.452186         1.482489
