19
Iteration:  3505charge 0 multiplicity 1
 C         4.835258         0.233383        -0.374038
 C         3.329147         0.297158        -0.256760
 C         2.262328         1.076767        -1.179130
 C         1.402606         0.418217        -0.058752
 C         2.344937        -0.836706        -0.340504
 O         2.324870        -1.733310         0.816521
 C         2.511302        -0.758176         1.829292
 C         2.439718         0.588689         1.085917
 O         2.577179         1.855410         1.870863
 H         5.074374         0.410594        -1.428271
 H         5.337751         0.961242         0.194577
 H         4.989153        -0.837483        -0.015398
 H         2.501598         2.157472        -1.247629
 H         2.186737         0.731597        -2.251780
 H         0.278793         0.461545        -0.005862
 H         2.305471        -1.360087        -1.219023
 H         1.921005        -1.148710         2.640079
 H         3.504288        -0.860773         2.201355
 H         3.059902         1.647630         2.633912
