19
Iteration:  3251
 C         4.840119         0.376793        -0.470832
 C         3.353257         0.267164        -0.289917
 C         2.265788         1.119132        -1.069658
 C         1.386328         0.363739         0.015422
 C         2.216935        -0.919979        -0.276043
 O         2.300386        -1.727150         0.848793
 C         2.592993        -0.712494         1.902931
 C         2.481887         0.531205         0.990372
 O         2.630996         1.733338         1.805791
 H         5.121005         1.403635        -0.785660
 H         5.268492         0.222736         0.528661
 H         5.396306        -0.358545        -1.130306
 H         2.362241         2.182013        -0.976461
 H         2.171690         0.836182        -2.182387
 H         0.364733         0.375028         0.261077
 H         1.985209        -1.471576        -1.237824
 H         1.856343        -0.784858         2.711070
 H         3.510566        -1.096161         2.383630
 H         2.513771         2.620279         1.303894
