19
Iteration:  1401charge 0 multiplicity 1
 C         4.802861         0.155863        -0.419058
 C         3.347903         0.176796        -0.314359
 C         2.276694         0.820535        -1.339113
 C         1.418933         0.285510        -0.111700
 C         2.370324        -1.030998        -0.044991
 O         2.372936        -1.652621         1.176881
 C         2.556993        -0.443907         2.004274
 C         2.459462         0.688556         0.915345
 O         2.457948         1.984934         1.615305
 H         5.327130        -0.125711         0.478693
 H         5.163868        -0.420814        -1.268463
 H         5.004146         1.108295        -0.705835
 H         2.392193         1.832068        -1.533324
 H         2.270119         0.096638        -2.282654
 H         0.332054         0.537406        -0.089688
 H         2.262458        -1.945473        -0.703249
 H         1.867140        -0.461861         2.898754
 H         3.585830        -0.140493         2.187987
 H         2.798341         2.719119         1.042414
