19
Iteration:  2159
 C         4.839358         0.069837        -0.477245
 C         3.330622         0.192355        -0.303089
 C         2.304630         0.905578        -1.323188
 C         1.405399         0.227631        -0.171910
 C         2.362428        -0.984057        -0.091860
 O         2.379276        -1.606331         1.237898
 C         2.654029        -0.363011         2.049496
 C         2.363999         0.675431         0.929930
 O         2.457987         1.913074         1.599292
 H         5.148176        -1.001443        -0.266080
 H         5.277579         0.274205        -1.513392
 H         5.415083         0.655162         0.254871
 H         2.302647         2.032522        -1.283419
 H         2.233715         0.527413        -2.305728
 H         0.229267         0.273220        -0.034504
 H         2.134209        -1.767924        -0.785345
 H         1.751157        -0.379521         2.765985
 H         3.611205        -0.458594         2.548742
 H         2.473755         2.599102         0.861761
