19
Iteration:  1564charge 0 multiplicity 1
 C         4.867846         0.179688        -0.426552
 C         3.283927         0.082055        -0.329863
 C         2.270229         0.923829        -1.180874
 C         1.364257         0.239481        -0.105935
 C         2.321762        -1.052032        -0.115890
 O         2.504663        -1.617131         1.133194
 C         2.414498        -0.464966         2.092196
 C         2.498766         0.662658         1.004655
 O         2.547059         1.995543         1.432085
 H         5.138432        -0.223362         0.632850
 H         5.460515        -0.446819        -1.213976
 H         5.190518         1.255712        -0.544829
 H         2.403008         2.027061        -1.119655
 H         2.004125         0.654845        -2.130457
 H         0.352659         0.205944        -0.129412
 H         2.153903        -1.882358        -0.772108
 H         1.465795        -0.204981         2.584541
 H         3.274415        -0.527766         2.766658
 H         2.579303         2.582030         0.605464
