19
Iteration:  4150charge 0 multiplicity 1
 C         4.858007         0.213078        -0.335266
 C         3.329379         0.326026        -0.325634
 C         2.297032         1.126332        -1.123109
 C         1.356960         0.424769        -0.064845
 C         2.235444        -0.837298        -0.333060
 O         2.389273        -1.710877         0.773644
 C         2.483228        -0.769536         1.873207
 C         2.543809         0.599254         1.045343
 O         2.580804         1.671955         1.900020
 H         5.440940        -0.079327        -1.257777
 H         5.144600         1.226536        -0.104738
 H         5.159438        -0.391158         0.517402
 H         2.475519         2.187093        -0.913629
 H         2.296788         0.979419        -2.233428
 H         0.311024         0.628269         0.224398
 H         2.211103        -1.420561        -1.325190
 H         1.610824        -0.741072         2.538678
 H         3.359245        -0.977895         2.468127
 H         2.325207         2.553477         1.441169
