19
Iteration:  2274charge 0 multiplicity 1
 C         4.859527         0.283231        -0.377854
 C         3.340141         0.189804        -0.226435
 C         2.323650         0.765139        -1.305366
 C         1.344555         0.282174        -0.092326
 C         2.214374        -1.018215        -0.123708
 O         2.319648        -1.615682         1.135713
 C         2.601206        -0.485780         1.968610
 C         2.492912         0.657709         0.981697
 O         2.556924         1.954100         1.573579
 H         5.306890        -0.131808         0.492959
 H         5.137863        -0.478732        -1.122598
 H         5.209255         1.283566        -0.625388
 H         2.218294         1.876765        -1.681611
 H         2.135681         0.156735        -2.247923
 H         0.310049         0.184144         0.071750
 H         2.316023        -1.780658        -1.026964
 H         1.960354        -0.382651         2.848162
 H         3.712869        -0.520313         2.198138
 H         2.647657         2.636551         0.834515
