19
Iteration:  1976
 C         4.817447         0.068961        -0.470169
 C         3.343630         0.219049        -0.216367
 C         2.304898         0.828472        -1.199697
 C         1.386613         0.254142        -0.112852
 C         2.275537        -0.988185        -0.126911
 O         2.504294        -1.632450         1.135214
 C         2.507540        -0.423279         1.987508
 C         2.485880         0.739536         0.941953
 O         2.505780         1.988569         1.534599
 H         5.147611        -0.774306         0.214346
 H         4.986030        -0.298439        -1.473724
 H         5.460366         0.981004        -0.202034
 H         2.199633         1.975997        -1.285031
 H         2.153730         0.236010        -2.162035
 H         0.286078         0.103446         0.142480
 H         2.303519        -1.703036        -0.867943
 H         1.547855        -0.422709         2.537482
 H         3.393462        -0.449759         2.664778
 H         2.010784         2.620890         1.051467
