19
Iteration:  3549charge 0 multiplicity 1
 C         4.818391         0.210844        -0.431220
 C         3.322046         0.205770        -0.284069
 C         2.362642         1.212747        -0.915584
 C         1.430396         0.389777        -0.055607
 C         2.275162        -0.899338        -0.350997
 O         2.387352        -1.742006         0.828921
 C         2.469689        -0.747943         1.877835
 C         2.519580         0.575543         1.065669
 O         2.497138         1.804830         1.715627
 H         5.124262         0.962362        -1.166914
 H         5.260376         0.674191         0.408045
 H         5.161911        -0.874245        -0.577638
 H         2.432477         2.331943        -0.647831
 H         2.198025         1.226690        -2.031508
 H         0.312899         0.383549         0.033620
 H         2.029779        -1.525216        -1.137270
 H         1.569739        -0.637994         2.513366
 H         3.308671        -0.953878         2.548417
 H         3.174446         2.373679         1.443737
