19
Iteration:   143charge 0 multiplicity 1
 C         4.805467         0.162424        -0.385953
 C         3.295870         0.150285        -0.288261
 C         2.276595         0.825355        -1.186048
 C         1.374907         0.219128        -0.123652
 C         2.335474        -1.030809        -0.094048
 O         2.278339        -1.621379         1.252530
 C         2.658476        -0.439713         1.990549
 C         2.499369         0.671720         0.950999
 O         2.517888         2.050731         1.311951
 H         5.283799        -0.599564         0.171150
 H         5.107034         0.151230        -1.412353
 H         5.027110         1.146796        -0.016964
 H         2.454518         1.876688        -1.255516
 H         2.235045         0.426095        -2.180014
 H         0.286195         0.206718        -0.080297
 H         2.395881        -1.742054        -0.931416
 H         2.127332        -0.323961         2.909534
 H         3.715460        -0.433450         2.149416
 H         2.766266         2.070032         2.221824
