19
Iteration:  3372charge 0 multiplicity 1
 C         4.776450         0.240148        -0.471985
 C         3.341665         0.341342        -0.260804
 C         2.284567         1.214802        -1.000942
 C         1.397327         0.395705        -0.121964
 C         2.307647        -0.866424        -0.374770
 O         2.345557        -1.707677         0.882180
 C         2.579271        -0.729229         1.875161
 C         2.446080         0.557456         1.043902
 O         2.594952         1.697058         1.801168
 H         4.938899        -0.592466        -1.144302
 H         5.228033         1.172377        -0.709396
 H         5.485348        -0.042479         0.342679
 H         2.367510         2.283008        -0.965491
 H         2.039858         1.072326        -2.107170
 H         0.338475         0.126279        -0.021724
 H         2.268848        -1.531449        -1.288833
 H         1.863607        -0.697830         2.740855
 H         3.613850        -0.719230         2.220161
 H         2.312286         1.596876         2.706910
