19
Iteration:  4648
 C         4.869723         0.413894        -0.422969
 C         3.327451         0.284794        -0.256226
 C         2.302662         1.167305        -0.927693
 C         1.414509         0.373442        -0.024727
 C         2.295317        -0.919451        -0.391971
 O         2.299303        -1.761761         0.777774
 C         2.454729        -0.762093         1.892180
 C         2.464780         0.509164         1.067868
 O         2.656199         1.764688         1.690804
 H         5.185371        -0.266238        -1.180274
 H         5.199882         1.430434        -0.805653
 H         5.372227         0.056634         0.504470
 H         2.206099         2.315375        -0.775176
 H         2.039119         0.980884        -2.004423
 H         0.275632         0.492535         0.044043
 H         2.321412        -1.581500        -1.300379
 H         1.704694        -0.732391         2.714800
 H         3.491558        -0.928933         2.324840
 H         2.468434         1.719260         2.707014
