19
Iteration:  4278charge 0 multiplicity 1
 C         4.804872         0.281168        -0.226696
 C         3.309204         0.304055        -0.331404
 C         2.198984         1.131728        -1.156725
 C         1.430993         0.330676        -0.145225
 C         2.270558        -0.889987        -0.390772
 O         2.335570        -1.641286         0.830207
 C         2.505601        -0.619011         1.839253
 C         2.480044         0.541692         1.008993
 O         2.770223         1.606762         1.934024
 H         5.235400         0.534252        -1.197399
 H         4.979895         1.112382         0.559845
 H         5.137407        -0.729668         0.182734
 H         1.980189         2.249426        -1.083924
 H         2.135931         0.861821        -2.198267
 H         0.297216         0.244450        -0.123485
 H         2.040243        -1.473538        -1.210692
 H         1.678233        -0.735365         2.580732
 H         3.478937        -0.563621         2.390066
 H         2.451508         2.422293         1.676644
