19
Iteration:  3312
 C         4.818528         0.245854        -0.381673
 C         3.279546         0.300326        -0.330130
 C         2.190268         1.161497        -1.053599
 C         1.381971         0.441651        -0.009494
 C         2.252909        -0.893287        -0.339482
 O         2.486189        -1.697125         0.810984
 C         2.547171        -0.745549         1.906560
 C         2.474120         0.576222         0.984146
 O         2.618649         1.687825         1.827389
 H         5.159299         0.555963        -1.391703
 H         5.287238         0.964110         0.384356
 H         5.033422        -0.798114        -0.186380
 H         2.310911         2.265175        -0.887764
 H         1.929136         0.867112        -2.028517
 H         0.272469         0.405260         0.221911
 H         2.061510        -1.694346        -1.032967
 H         1.597639        -0.777390         2.456872
 H         3.465377        -0.869873         2.573139
 H         2.977357         2.527982         1.333288
