19
Iteration:   416
 C         4.853000         0.070909        -0.310847
 C         3.335035         0.183110        -0.289519
 C         2.305281         0.731095        -1.284389
 C         1.339135         0.172406        -0.101687
 C         2.272257        -1.022064        -0.137232
 O         2.383630        -1.525342         1.146298
 C         2.637945        -0.395275         1.935794
 C         2.441979         0.763966         0.954884
 O         2.461772         1.996976         1.571904
 H         5.217545        -0.434923         0.611702
 H         5.063923        -0.463453        -1.226766
 H         5.358111         1.153820        -0.368836
 H         2.386002         1.884867        -1.377629
 H         2.369702         0.449322        -2.348559
 H         0.306130         0.402259        -0.053951
 H         2.306508        -1.839972        -0.935411
 H         1.951991        -0.493126         2.788929
 H         3.664470        -0.523480         2.372001
 H         2.726810         2.618432         0.824666
