19
Iteration:  4844
 C         4.749019         0.275206        -0.444626
 C         3.306747         0.259029        -0.209992
 C         2.275598         1.114306        -1.075914
 C         1.355826         0.330709        -0.161744
 C         2.366856        -0.912583        -0.353485
 O         2.375870        -1.604511         0.809246
 C         2.558663        -0.657381         1.897400
 C         2.369715         0.571073         1.054891
 O         2.681946         1.669991         1.935701
 H         4.859593         0.909534        -1.333752
 H         5.273799         0.667956         0.530902
 H         5.258151        -0.709543        -0.632925
 H         2.352891         2.232820        -1.024150
 H         2.185443         0.789369        -2.101275
 H         0.209750         0.314947        -0.008875
 H         2.267868        -1.584923        -1.233649
 H         2.055204        -0.994578         2.807944
 H         3.646195        -0.595613         2.175026
 H         2.280118         2.496228         1.402996
