19
Iteration:  3668
 C         4.855315         0.201217        -0.426392
 C         3.366728         0.293028        -0.174114
 C         2.229609         1.230825        -0.967230
 C         1.405908         0.375077        -0.060456
 C         2.345939        -0.859708        -0.355654
 O         2.313122        -1.785468         0.749937
 C         2.447802        -0.765878         1.956326
 C         2.507337         0.522604         1.085322
 O         2.589755         1.803513         1.724234
 H         5.221470        -0.209565        -1.421539
 H         5.434654         1.120798        -0.384282
 H         5.327388        -0.439069         0.426772
 H         2.244709         2.310962        -0.823763
 H         2.076386         1.258330        -2.082202
 H         0.267049         0.472658         0.050128
 H         2.349293        -1.189569        -1.341619
 H         1.742480        -0.783490         2.828677
 H         3.435609        -1.018844         2.412987
 H         2.649605         2.556688         1.029418
