19
Iteration:   809
 C         4.831289         0.213295        -0.433385
 C         3.332210         0.257581        -0.270467
 C         2.265957         0.847515        -1.192473
 C         1.360235         0.194066        -0.104105
 C         2.292063        -1.072423        -0.119530
 O         2.456564        -1.659643         1.184212
 C         2.467042        -0.346787         2.040280
 C         2.463391         0.640399         0.959528
 O         2.610643         1.955644         1.444834
 H         5.194385        -0.722839         0.057819
 H         5.069624         0.223890        -1.468623
 H         5.333330         1.012264         0.155413
 H         2.048066         1.923778        -1.147979
 H         2.180710         0.491269        -2.252531
 H         0.304468         0.057863        -0.021938
 H         2.102822        -1.809676        -1.009663
 H         1.492346        -0.341475         2.568691
 H         3.300378        -0.640478         2.722479
 H         2.859167         2.612316         0.753046
