19
Iteration:    80charge 0 multiplicity 1
 C         4.773374         0.115644        -0.406880
 C         3.279848         0.252597        -0.321196
 C         2.218293         0.853887        -1.274507
 C         1.370684         0.202103        -0.129627
 C         2.361279        -1.006025        -0.072190
 O         2.526697        -1.642510         1.213280
 C         2.402198        -0.437428         2.034827
 C         2.507153         0.688837         0.927961
 O         2.554687         2.056800         1.437194
 H         5.171433        -0.620383         0.450277
 H         5.031980        -0.512318        -1.256338
 H         5.430739         0.936315        -0.447487
 H         2.337602         1.874181        -1.334029
 H         2.030854         0.372237        -2.314557
 H         0.283829         0.130360         0.021671
 H         2.276831        -1.848676        -0.780159
 H         1.509895        -0.450732         2.674663
 H         3.306484        -0.488300         2.677643
 H         3.464565         2.299576         1.772234
