19
Iteration:  3164charge 0 multiplicity 1
 C         4.815939         0.179459        -0.425318
 C         3.281165         0.279573        -0.320680
 C         2.232423         1.113250        -1.169711
 C         1.416117         0.391272        -0.043545
 C         2.199993        -0.921678        -0.269537
 O         2.457951        -1.651867         0.922508
 C         2.646031        -0.661057         1.851749
 C         2.512194         0.573320         0.941872
 O         2.518058         1.795156         1.824022
 H         5.188332         0.379473         0.608307
 H         4.915228        -0.903965        -0.571604
 H         5.413383         0.800653        -1.148866
 H         2.281969         2.151858        -1.075936
 H         1.972980         0.846136        -2.240663
 H         0.385371         0.415431         0.198281
 H         2.058431        -1.505830        -1.203864
 H         1.816685        -0.486913         2.559251
 H         3.646672        -0.642783         2.372791
 H         2.561449         1.549500         2.747928
