19
Iteration:  3489
 C         4.791877         0.206708        -0.340765
 C         3.283655         0.342433        -0.202839
 C         2.346286         1.075222        -1.082529
 C         1.400296         0.391069        -0.040767
 C         2.198685        -0.859319        -0.358866
 O         2.384569        -1.712681         0.716453
 C         2.567767        -0.755682         1.868357
 C         2.515190         0.608815         1.069752
 O         2.595709         1.829605         1.775800
 H         5.048437        -0.002882        -1.385002
 H         5.234757         1.187064         0.134184
 H         5.416941        -0.479441         0.194489
 H         2.199710         2.151429        -1.175277
 H         2.213902         0.614196        -2.105570
 H         0.328744         0.452432         0.151926
 H         2.027759        -1.427116        -1.398585
 H         1.644430        -0.702240         2.532106
 H         3.526352        -1.075821         2.448836
 H         2.532973         1.647772         2.743762
