19
Iteration:  1242charge 0 multiplicity 1
 C         4.813219         0.152651        -0.435893
 C         3.347704         0.168269        -0.208403
 C         2.309595         0.895881        -1.207215
 C         1.443090         0.290592        -0.153246
 C         2.295262        -1.071010        -0.103608
 O         2.455781        -1.671167         1.228983
 C         2.495089        -0.443281         2.001663
 C         2.490295         0.667922         0.989008
 O         2.448516         2.000216         1.418344
 H         5.161991        -0.831696        -0.179319
 H         4.998200         0.224532        -1.525811
 H         5.443365         1.014769         0.006556
 H         2.044236         2.056352        -1.220468
 H         2.123770         0.363224        -2.070318
 H         0.468088         0.341822         0.102030
 H         2.155364        -1.832819        -0.785097
 H         1.752931        -0.169254         2.775259
 H         3.533859        -0.580466         2.340177
 H         2.619890         2.561224         0.594209
