19
Iteration:   200
 C         4.728308         0.056298        -0.449740
 C         3.290768         0.153884        -0.306125
 C         2.274029         0.860803        -1.225237
 C         1.435268         0.260697        -0.065563
 C         2.407777        -1.083440        -0.121962
 O         2.536196        -1.581716         1.190179
 C         2.396989        -0.403243         2.032086
 C         2.441152         0.681979         0.962501
 O         2.530997         2.076093         1.397811
 H         5.358644        -0.524130         0.288270
 H         5.008299        -0.238539        -1.442264
 H         5.125875         1.005026        -0.385683
 H         2.304833         1.883836        -1.317675
 H         2.220645         0.275793        -2.197953
 H         0.328910         0.349248         0.086066
 H         2.104854        -1.908409        -0.847573
 H         1.468933        -0.462979         2.579227
 H         3.199356        -0.363723         2.742343
 H         3.216742         2.104559         2.145771
