19
Iteration:  2634
 C         4.845919         0.215906        -0.480755
 C         3.324614         0.209089        -0.305498
 C         2.308274         0.996719        -1.199577
 C         1.441492         0.302965        -0.057617
 C         2.294984        -0.983068        -0.188637
 O         2.308452        -1.627509         1.092823
 C         2.590492        -0.478307         1.952259
 C         2.489840         0.569473         0.984903
 O         2.432498         1.823682         1.646624
 H         5.131830        -0.652904        -1.073524
 H         5.123515         1.101673        -1.036182
 H         5.404463         0.186028         0.463283
 H         2.305097         2.037441        -1.270195
 H         2.098078         0.605254        -2.250799
 H         0.429456         0.475010         0.047034
 H         2.393774        -1.814292        -1.008656
 H         1.973518        -0.345918         2.819341
 H         3.546767        -0.607352         2.340496
 H         3.280240         2.225307         1.656051
