19
Iteration:  2872charge 0 multiplicity 1
 C         4.788811         0.131321        -0.434339
 C         3.317388         0.249044        -0.237108
 C         2.269795         1.086411        -1.033956
 C         1.397104         0.286915        -0.092716
 C         2.323724        -0.924122        -0.263412
 O         2.390612        -1.720342         0.971451
 C         2.634795        -0.612270         1.919700
 C         2.414680         0.633915         1.032638
 O         2.475898         1.950162         1.552744
 H         5.434328         0.940913        -0.122478
 H         5.212773        -0.620659         0.244822
 H         5.085812        -0.283704        -1.423956
 H         2.256012         2.060621        -0.616869
 H         2.091762         0.914123        -2.123380
 H         0.326005         0.308630         0.110787
 H         2.154387        -1.605021        -1.010366
 H         1.934097        -0.626522         2.732753
 H         3.660270        -0.713616         2.192059
 H         3.317513         2.081698         1.907081
