19
Iteration:  4948
 C         4.820968         0.400401        -0.467191
 C         3.346905         0.315856        -0.273089
 C         2.211473         1.071384        -1.112173
 C         1.331592         0.325076        -0.121878
 C         2.220115        -0.895295        -0.321105
 O         2.424256        -1.643364         0.810409
 C         2.472590        -0.709101         1.890213
 C         2.513418         0.609902         1.058572
 O         2.647647         1.617282         1.983817
 H         5.212219        -0.254593        -1.283308
 H         5.269085         1.303919        -0.733681
 H         5.264902        -0.114051         0.414542
 H         2.263524         2.188880        -1.101239
 H         2.396265         0.668539        -2.147730
 H         0.275987         0.409782         0.038583
 H         2.269012        -1.498182        -1.269483
 H         1.576414        -0.778988         2.524434
 H         3.342420        -0.935078         2.478220
 H         3.074430         2.346556         1.513375
