19
Iteration:  1297
 C         4.809448         0.096829        -0.358278
 C         3.287448         0.233237        -0.303063
 C         2.247059         0.800355        -1.266762
 C         1.350851         0.305208        -0.153850
 C         2.358573        -1.035550        -0.059178
 O         2.478689        -1.680087         1.202119
 C         2.577133        -0.401958         1.951766
 C         2.404348         0.749941         0.891133
 O         2.530556         1.955569         1.510032
 H         5.032991        -0.827122         0.200517
 H         5.170531        -0.073965        -1.388115
 H         5.399637         0.886527         0.245311
 H         2.350487         1.973206        -1.466809
 H         2.300166         0.396614        -2.218293
 H         0.453979         0.237355         0.220776
 H         2.395996        -1.791742        -0.780516
 H         1.825090        -0.222625         2.709360
 H         3.517181        -0.409444         2.512412
 H         2.089121         2.792022         1.124935
