19
Iteration:  3382
 C         4.844407         0.278758        -0.444466
 C         3.293742         0.302395        -0.289525
 C         2.310064         1.192317        -1.104786
 C         1.395362         0.340127        -0.094406
 C         2.256457        -0.869869        -0.344653
 O         2.337164        -1.675117         0.867284
 C         2.621101        -0.653044         1.839926
 C         2.495822         0.537801         1.035892
 O         2.548467         1.710565         1.888930
 H         5.021139        -0.502016        -1.175884
 H         5.219187         1.153179        -0.987261
 H         5.210098         0.018258         0.550287
 H         2.364973         2.232390        -0.884731
 H         2.210362         0.789430        -2.157773
 H         0.313054         0.428477         0.050945
 H         1.959108        -1.392582        -1.317590
 H         1.754103        -0.843080         2.498698
 H         3.521789        -0.887310         2.381168
 H         2.753670         1.241067         2.738993
