19
Iteration:   954
 C         4.831443         0.108253        -0.469873
 C         3.282896         0.213549        -0.244991
 C         2.229129         0.773950        -1.251897
 C         1.359765         0.279124        -0.168412
 C         2.326173        -1.015753        -0.137072
 O         2.584166        -1.598559         1.178256
 C         2.386898        -0.375885         1.999006
 C         2.440236         0.675561         0.929264
 O         2.606606         1.943938         1.600897
 H         5.163044        -0.450863         0.403203
 H         5.109580        -0.391885        -1.417924
 H         5.254180         1.059834        -0.352762
 H         2.249021         1.891537        -1.317110
 H         2.037931         0.258381        -2.122841
 H         0.383586         0.340331        -0.043192
 H         2.387840        -1.746657        -0.922518
 H         1.469173        -0.336082         2.632418
 H         3.260778        -0.381475         2.729999
 H         2.463467         2.671884         1.051835
