19
Iteration:  2861charge 0 multiplicity 1
 C         4.766153         0.092154        -0.349721
 C         3.293592         0.265672        -0.356559
 C         2.244646         1.076105        -1.107796
 C         1.408967         0.334267        -0.035732
 C         2.317682        -0.981785        -0.268372
 O         2.444951        -1.706484         1.018798
 C         2.633091        -0.577216         1.886331
 C         2.506633         0.617829         0.965918
 O         2.452553         1.924099         1.641070
 H         5.289572         0.979880        -0.007136
 H         4.969692        -0.878717         0.067236
 H         4.968887         0.100089        -1.446701
 H         2.318008         2.130906        -1.018879
 H         2.072392         0.910052        -2.207022
 H         0.344013         0.497299         0.038250
 H         2.101043        -1.577867        -1.083299
 H         1.823747        -0.535238         2.599098
 H         3.506023        -0.642673         2.485063
 H         3.296044         1.954699         2.177964
