19
Iteration:  2715
 C         4.810508         0.126099        -0.374433
 C         3.254198         0.262370        -0.305736
 C         2.141957         0.985138        -1.235563
 C         1.359896         0.279874        -0.127592
 C         2.326893        -0.999550        -0.237303
 O         2.548679        -1.648985         1.045307
 C         2.517917        -0.498624         1.922880
 C         2.433079         0.665000         0.966194
 O         2.608733         1.922656         1.684959
 H         4.984820        -0.927732        -0.088619
 H         5.262093         0.389887        -1.329728
 H         5.168353         0.734734         0.442768
 H         2.312968         2.096505        -1.125397
 H         2.076842         0.559986        -2.200854
 H         0.245522         0.409744         0.121511
 H         1.942396        -1.807183        -1.067347
 H         1.610004        -0.516349         2.559591
 H         3.457435        -0.448432         2.439069
 H         3.391776         1.637542         2.233044
