19
Iteration:   663charge 0 multiplicity 1
 C         4.825486         0.190978        -0.439734
 C         3.329779         0.214449        -0.210789
 C         2.299111         0.849434        -1.180038
 C         1.396811         0.213624        -0.174123
 C         2.277678        -1.038623        -0.136656
 O         2.348495        -1.661801         1.173647
 C         2.553016        -0.416622         2.033008
 C         2.540063         0.656769         0.978649
 O         2.500973         1.972398         1.484051
 H         5.422304         0.001712         0.418866
 H         5.179588        -0.500082        -1.204813
 H         5.048446         1.200798        -0.813035
 H         2.218298         1.857381        -1.197264
 H         2.160383         0.546733        -2.280793
 H         0.277298        -0.072743        -0.123443
 H         2.283974        -1.740678        -0.921056
 H         1.852129        -0.187563         2.865149
 H         3.586849        -0.486775         2.404579
 H         2.812808         2.714738         0.867309
