19
Iteration:  4259charge 0 multiplicity 1
 C         4.767872         0.328136        -0.276172
 C         3.237751         0.321719        -0.236704
 C         2.341293         1.161062        -1.096628
 C         1.291551         0.346716        -0.212448
 C         2.325764        -0.877701        -0.315447
 O         2.294240        -1.754795         0.831478
 C         2.569828        -0.716744         1.853759
 C         2.444815         0.589535         1.050447
 O         2.738801         1.694919         1.831909
 H         5.143450         0.642442        -1.255105
 H         5.250899         0.697119         0.531526
 H         5.005009        -0.700163        -0.250668
 H         2.392812         2.231891        -0.993506
 H         2.235203         0.936661        -2.172361
 H         0.219527         0.330990         0.049434
 H         2.564738        -1.556661        -1.193773
 H         1.841732        -0.721276         2.685239
 H         3.568069        -0.949399         2.234443
 H         2.603150         2.550523         1.523368
