19
Iteration:  2899
 C         4.778909         0.224789        -0.450918
 C         3.323441         0.270722        -0.214954
 C         2.317595         1.096976        -1.051512
 C         1.416668         0.326228        -0.042893
 C         2.324398        -0.885189        -0.301081
 O         2.330259        -1.675243         0.984420
 C         2.600287        -0.733419         2.018171
 C         2.478734         0.547235         1.083756
 O         2.476269         1.884373         1.482842
 H         5.203675         1.151956        -0.924234
 H         5.544808         0.085193         0.366455
 H         4.923022        -0.647925        -1.117391
 H         2.350114         2.216339        -0.860444
 H         2.166801         0.718101        -2.055030
 H         0.318014         0.416722         0.090771
 H         2.104474        -1.685550        -1.115013
 H         1.736833        -0.650135         2.713510
 H         3.620512        -0.961906         2.500850
 H         3.339871         2.188252         1.410131
