19
Iteration:  1987
 C         4.733548         0.064068        -0.463021
 C         3.316825         0.280782        -0.234816
 C         2.327548         0.883527        -1.196846
 C         1.438592         0.187871        -0.085007
 C         2.353928        -1.046618        -0.137492
 O         2.449067        -1.608215         1.131422
 C         2.493817        -0.406236         2.025202
 C         2.478081         0.643623         0.986345
 O         2.491401         1.983488         1.501886
 H         5.214699        -0.647227         0.267682
 H         4.789351        -0.326034        -1.470192
 H         5.360211         1.020742        -0.546219
 H         2.718091         1.956506        -1.271272
 H         2.322931         0.594555        -2.291331
 H         0.349240         0.442902         0.149877
 H         2.335140        -1.742368        -0.891008
 H         1.787160        -0.300417         2.858197
 H         3.513800        -0.464413         2.465705
 H         1.955537         2.523262         0.844623
