19
Iteration:   160
 C         4.896183         0.190819        -0.426296
 C         3.365572         0.118667        -0.253486
 C         2.324666         0.766297        -1.251722
 C         1.402090         0.174966        -0.069145
 C         2.256236        -1.049341        -0.142715
 O         2.300366        -1.462146         1.161984
 C         2.677285        -0.381742         2.015538
 C         2.372053         0.659392         0.980418
 O         2.516245         1.992764         1.374671
 H         5.312769        -0.652208         0.290832
 H         5.016087         0.078665        -1.566084
 H         5.469893         1.175923        -0.034201
 H         2.049192         1.941858        -1.290625
 H         2.053693         0.215438        -2.212985
 H         0.313152         0.138746         0.132715
 H         1.875481        -1.869555        -0.738628
 H         1.905775        -0.460589         2.865782
 H         3.758692        -0.539825         2.408639
 H         2.749223         2.087982         2.292615
