19
Iteration:  4655charge 0 multiplicity 1
 C         4.850701         0.368280        -0.434742
 C         3.363913         0.334033        -0.241280
 C         2.252288         1.277185        -0.946073
 C         1.382161         0.327984        -0.048959
 C         2.312965        -0.955054        -0.461139
 O         2.315379        -1.739078         0.873132
 C         2.444575        -0.783371         1.908170
 C         2.483442         0.516830         1.045661
 O         2.667908         1.750970         1.680924
 H         5.149444        -0.330917        -1.258512
 H         5.244365         1.363948        -0.672183
 H         5.530948         0.089042         0.410077
 H         2.334128         2.268716        -0.572296
 H         2.257698         1.123448        -2.005781
 H         0.300426         0.279251         0.023167
 H         2.122207        -1.520392        -1.347062
 H         1.668037        -0.970184         2.641503
 H         3.389308        -0.988519         2.373734
 H         2.293065         1.804933         2.648034
