19
Iteration:  4933
 C         4.714614         0.245383        -0.432576
 C         3.213810         0.369359        -0.223885
 C         2.303733         1.163573        -1.146663
 C         1.326770         0.367621        -0.135734
 C         2.396259        -0.838925        -0.345058
 O         2.473935        -1.707665         0.854099
 C         2.507525        -0.691380         1.859878
 C         2.415093         0.521647         1.084946
 O         2.696998         1.635900         1.945548
 H         4.924161        -0.265830        -1.417175
 H         4.891932         1.378611        -0.575753
 H         5.297875        -0.194062         0.375620
 H         2.346510         2.236585        -0.998611
 H         1.989301         0.772992        -2.085605
 H         0.227182         0.224988        -0.260837
 H         2.282255        -1.428414        -1.224362
 H         1.660531        -0.790167         2.509656
 H         3.458483        -0.688723         2.462844
 H         2.761911         2.588892         1.471817
