19
Iteration:  4645
 C         4.868732         0.425378        -0.419393
 C         3.315615         0.266909        -0.258566
 C         2.311024         1.139790        -0.944014
 C         1.420928         0.380999        -0.027823
 C         2.288030        -0.895101        -0.346395
 O         2.292204        -1.768393         0.744182
 C         2.475856        -0.757343         1.877325
 C         2.460403         0.506113         1.087656
 O         2.652679         1.770437         1.697525
 H         5.205699        -0.278022        -1.197727
 H         5.142504         1.436773        -0.784363
 H         5.312954         0.091185         0.560134
 H         2.241466         2.213692        -0.851057
 H         2.009309         0.950645        -1.959284
 H         0.334070         0.537356         0.077907
 H         2.354605        -1.515586        -1.205920
 H         1.726907        -0.687708         2.638599
 H         3.451629        -0.898162         2.321888
 H         2.517778         1.653591         2.670384
