19
Iteration:  1876
 C         4.908763         0.292524        -0.380634
 C         3.354777         0.094708        -0.286334
 C         2.245621         0.893534        -1.179862
 C         1.399429         0.237231        -0.026173
 C         2.215629        -1.094055        -0.116061
 O         2.319195        -1.612240         1.163499
 C         2.606628        -0.437046         2.009786
 C         2.536012         0.617250         0.892335
 O         2.523423         1.946835         1.428194
 H         5.403702        -0.557756         0.232476
 H         5.241308        -0.007383        -1.386281
 H         5.300062         1.333404         0.078476
 H         2.179982         2.081095        -1.262893
 H         2.260958         0.496416        -2.265475
 H         0.243304         0.444018        -0.073332
 H         2.159114        -1.845953        -0.849389
 H         1.729078        -0.290158         2.721965
 H         3.547753        -0.507433         2.620696
 H         2.350340         2.591170         0.737673
