19
Iteration:  1279
 C         4.824389         0.073874        -0.385874
 C         3.325504         0.198538        -0.293956
 C         2.290175         0.833365        -1.283258
 C         1.409529         0.154508        -0.148157
 C         2.323877        -1.019309        -0.142246
 O         2.391797        -1.512097         1.204994
 C         2.640614        -0.366245         2.004196
 C         2.482244         0.669846         0.955223
 O         2.451501         1.957116         1.585377
 H         5.168702        -0.896600        -0.009602
 H         5.112368         0.198544        -1.407733
 H         5.316657         0.800914         0.204288
 H         2.119652         1.859970        -1.460123
 H         2.063924         0.359145        -2.308156
 H         0.180195         0.217537        -0.286875
 H         2.180216        -1.795852        -1.005376
 H         1.987860        -0.298285         2.939076
 H         3.685669        -0.327114         2.413080
 H         2.238364         2.576197         0.789831
