19
Iteration:  4989
 C         4.777665         0.469775        -0.469435
 C         3.314979         0.263676        -0.222850
 C         2.325812         1.116223        -0.993758
 C         1.437846         0.336898        -0.039147
 C         2.302917        -0.891355        -0.351936
 O         2.238956        -1.698929         0.804773
 C         2.542786        -0.808737         1.938284
 C         2.514326         0.480937         1.083740
 O         2.608319         1.708996         1.743211
 H         5.147363        -0.088469        -1.414486
 H         4.980454         1.565905        -0.535944
 H         5.398154         0.238151         0.405535
 H         2.300049         2.120914        -0.659599
 H         2.183978         1.145792        -2.057690
 H         0.398532         0.519419         0.148568
 H         2.130732        -1.462015        -1.262543
 H         1.808893        -0.862566         2.716305
 H         3.576360        -0.990248         2.348949
 H         3.019241         2.373122         1.179207
