19
Iteration:  1402
 C         4.802007         0.148417        -0.413967
 C         3.345210         0.178405        -0.330265
 C         2.275129         0.820155        -1.338767
 C         1.422442         0.285788        -0.115663
 C         2.372502        -1.036165        -0.043271
 O         2.378028        -1.649760         1.182068
 C         2.552082        -0.446094         1.998921
 C         2.457430         0.697772         0.926540
 O         2.457029         1.982106         1.614602
 H         5.330135        -0.144181         0.455238
 H         5.191563        -0.400976        -1.265064
 H         4.993613         1.104237        -0.703883
 H         2.401086         1.798515        -1.507838
 H         2.279616         0.130050        -2.288011
 H         0.270142         0.550656        -0.054132
 H         2.290303        -1.893521        -0.700109
 H         1.864383        -0.473197         2.882571
 H         3.584558        -0.162462         2.196839
 H         2.807509         2.738115         1.019709
