19
Iteration:  1009charge 0 multiplicity 1
 C         4.827943         0.197426        -0.307296
 C         3.280207         0.186710        -0.225261
 C         2.302663         0.858736        -1.186202
 C         1.371614         0.245577        -0.071206
 C         2.302888        -1.019661        -0.114348
 O         2.342334        -1.637124         1.166596
 C         2.645484        -0.464901         1.986884
 C         2.409312         0.597987         0.942946
 O         2.544572         1.999662         1.357413
 H         5.354130        -0.694323        -0.044590
 H         5.157862         0.440875        -1.356211
 H         5.136598         1.089669         0.151034
 H         2.467189         1.993123        -1.249198
 H         2.199362         0.570501        -2.191179
 H         0.424205         0.062602         0.161805
 H         2.115705        -1.788059        -0.835382
 H         2.021075        -0.319905         2.911487
 H         3.801859        -0.578022         2.175684
 H         2.544941         2.544505         0.564759
