19
Iteration:  4862charge 0 multiplicity 1
 C         4.867972         0.231391        -0.419761
 C         3.280942         0.350333        -0.247318
 C         2.298682         1.194695        -1.056860
 C         1.349640         0.353947        -0.086169
 C         2.201192        -0.845862        -0.323354
 O         2.389863        -1.785143         0.866147
 C         2.696569        -0.760105         1.838059
 C         2.472806         0.574800         1.088319
 O         2.546370         1.762583         1.809090
 H         5.062885         0.646945        -1.386099
 H         5.366760         0.700058         0.413898
 H         5.127605        -0.856898        -0.429728
 H         2.327175         2.251023        -0.746856
 H         2.296220         0.971110        -2.151469
 H         0.253464         0.375278        -0.200217
 H         2.166769        -1.421118        -1.271386
 H         1.909405        -0.755966         2.662763
 H         3.669084        -0.941137         2.303204
 H         1.930575         2.538308         1.465286
