19
Iteration:   944charge 0 multiplicity 1
 C         4.815897         0.099170        -0.422894
 C         3.309101         0.202644        -0.346797
 C         2.264282         0.797565        -1.278799
 C         1.359310         0.227364        -0.145163
 C         2.338997        -1.046879        -0.084587
 O         2.538323        -1.544969         1.149395
 C         2.421759        -0.463851         2.035777
 C         2.432712         0.743100         0.994825
 O         2.584533         1.983466         1.614108
 H         5.459750        -0.401788         0.276338
 H         4.919111        -0.462884        -1.411060
 H         5.296895         1.051548        -0.657490
 H         2.233775         1.935752        -1.439120
 H         2.282239         0.437320        -2.235497
 H         0.343557         0.262447        -0.102642
 H         2.070150        -1.754474        -0.822713
 H         1.446192        -0.700410         2.512116
 H         3.328201        -0.313016         2.721717
 H         2.457752         2.570254         0.899908
