19
Iteration:  1676charge 0 multiplicity 1
 C         4.809681         0.159541        -0.412841
 C         3.315504         0.218853        -0.229370
 C         2.276393         0.855282        -1.103180
 C         1.342572         0.123674        -0.138143
 C         2.379970        -0.980409        -0.134797
 O         2.412364        -1.657111         1.141580
 C         2.494806        -0.449932         2.015581
 C         2.403008         0.680106         0.984983
 O         2.592851         2.029071         1.409392
 H         5.166171        -0.771788         0.109889
 H         5.176744         0.093040        -1.526604
 H         5.399867         0.976832         0.063899
 H         2.130728         1.913115        -1.070610
 H         2.361483         0.530949        -2.097957
 H         0.256623         0.281519        -0.099852
 H         2.347153        -1.804533        -0.899693
 H         1.625590        -0.268349         2.719824
 H         3.467137        -0.470015         2.507724
 H         2.821664         2.628168         0.669361
