19
Iteration:   803
 C         4.842087         0.218755        -0.447762
 C         3.319616         0.279875        -0.256860
 C         2.275524         0.818830        -1.130047
 C         1.400064         0.175793        -0.145219
 C         2.251952        -1.065187        -0.117548
 O         2.423423        -1.614316         1.176318
 C         2.496036        -0.423715         2.054806
 C         2.485603         0.666243         0.957495
 O         2.580004         1.955120         1.427621
 H         5.141566        -0.750004        -0.037375
 H         5.209694         0.281332        -1.540775
 H         5.309879         1.024488         0.106236
 H         2.235258         1.961127        -1.228384
 H         2.131396         0.550951        -2.166612
 H         0.273781         0.170659        -0.067954
 H         2.141528        -1.899701        -0.753346
 H         1.549778        -0.542784         2.599582
 H         3.371527        -0.413939         2.726008
 H         2.833878         2.464926         0.700585
