19
Iteration:  3861charge 0 multiplicity 1
 C         4.791368         0.201332        -0.493898
 C         3.258491         0.294509        -0.259511
 C         2.432394         1.231709        -1.063533
 C         1.390700         0.463114        -0.158666
 C         2.272211        -0.916053        -0.309014
 O         2.414528        -1.740128         0.843693
 C         2.504713        -0.735489         1.897976
 C         2.417780         0.554599         1.080129
 O         2.505254         1.732676         1.930971
 H         4.968945        -0.115556        -1.487373
 H         5.390159         1.136094        -0.274809
 H         5.369867        -0.477922         0.166551
 H         2.713154         2.299172        -0.917228
 H         2.323672         0.903045        -2.097940
 H         0.256620         0.539248        -0.175871
 H         2.396779        -1.565450        -1.148257
 H         1.759168        -1.021729         2.622104
 H         3.520490        -0.714016         2.280490
 H         2.865582         2.350163         1.298331
