19
Iteration:   647
 C         4.829122         0.272900        -0.476806
 C         3.343473         0.185408        -0.324645
 C         2.339780         0.795324        -1.244947
 C         1.399189         0.136834        -0.201897
 C         2.248018        -1.092879        -0.142581
 O         2.295535        -1.567642         1.227866
 C         2.627691        -0.476948         2.043815
 C         2.479723         0.694201         0.985429
 O         2.503341         2.005733         1.611773
 H         5.312385        -0.029266         0.514222
 H         5.154816        -0.399442        -1.312639
 H         5.253704         1.256714        -0.687770
 H         2.285726         1.988004        -1.441355
 H         2.428395         0.339722        -2.200460
 H         0.412770         0.433848        -0.225308
 H         2.052990        -1.985552        -0.866964
 H         1.822325        -0.494389         2.785217
 H         3.616236        -0.544395         2.520744
 H         2.768935         2.593535         0.805706
