19
Iteration:  2588
 C         4.761629         0.216185        -0.364299
 C         3.224347         0.253512        -0.194951
 C         2.222724         0.930058        -1.149255
 C         1.361694         0.314643        -0.127110
 C         2.362360        -0.963464        -0.213405
 O         2.466858        -1.651804         1.030700
 C         2.460742        -0.558412         1.968266
 C         2.480407         0.661394         1.004910
 O         2.678607         1.868262         1.545205
 H         5.005778         0.005099        -1.433402
 H         5.154226         1.174812        -0.046795
 H         5.162048        -0.620709         0.308132
 H         2.386919         1.958812        -1.348707
 H         2.095994         0.444911        -2.182091
 H         0.334881         0.068959         0.096795
 H         2.265880        -1.592177        -0.988891
 H         1.592965        -0.748706         2.572021
 H         3.224067        -0.515847         2.736357
 H         3.068101         2.461223         0.958850
