19
Iteration:  4022
 C         4.756754         0.196525        -0.471341
 C         3.330527         0.282016        -0.129585
 C         2.430965         1.213691        -0.992544
 C         1.412439         0.353028        -0.107213
 C         2.327491        -0.823325        -0.390886
 O         2.455154        -1.724929         0.796514
 C         2.445993        -0.801137         1.865711
 C         2.331211         0.562373         1.132256
 O         2.531807         1.769216         1.846193
 H         4.749167        -0.157115        -1.564053
 H         5.386483         1.119473        -0.437379
 H         5.238285        -0.593331         0.105279
 H         2.596856         2.336160        -0.819773
 H         2.292289         1.056520        -2.080744
 H         0.349842         0.371472        -0.126321
 H         2.148107        -1.262132        -1.424037
 H         1.747450        -0.862796         2.721812
 H         3.488624        -0.586516         2.252499
 H         2.885606         2.407350         1.196186
