19
Iteration:  2972
 C         4.770439         0.213471        -0.415958
 C         3.267343         0.265086        -0.221944
 C         2.220200         0.986356        -1.115313
 C         1.405767         0.320345        -0.079713
 C         2.269439        -0.956516        -0.290925
 O         2.456968        -1.715699         0.915008
 C         2.507723        -0.629102         1.891031
 C         2.453884         0.637031         1.065432
 O         2.649496         1.950260         1.643090
 H         5.147806        -0.013471        -1.436883
 H         5.238504         1.127895         0.037538
 H         5.335560        -0.575839         0.202946
 H         2.373502         2.165116        -1.026210
 H         2.077052         0.797245        -2.218039
 H         0.252733         0.331124        -0.095290
 H         2.231918        -1.547952        -1.163542
 H         1.673189        -0.857990         2.664723
 H         3.415347        -0.737980         2.514968
 H         2.915407         1.866352         2.565581
