19
Iteration:  4770charge 0 multiplicity 1
 C         4.739050         0.303648        -0.373376
 C         3.261506         0.295525        -0.163443
 C         2.271233         1.297972        -1.032036
 C         1.402183         0.303920        -0.175302
 C         2.273671        -0.964144        -0.360566
 O         2.385328        -1.738748         0.866070
 C         2.564579        -0.775581         1.908307
 C         2.486062         0.579386         1.087484
 O         2.629861         1.761615         1.744043
 H         4.870371         1.002611        -1.242137
 H         5.374476         0.615858         0.472122
 H         5.148744        -0.637173        -0.768406
 H         2.046770         2.307302        -0.629351
 H         2.267561         1.088434        -2.114433
 H         0.293863         0.330806        -0.065900
 H         2.388453        -1.603864        -1.251090
 H         1.831260        -0.878983         2.694859
 H         3.545677        -0.981580         2.410132
 H         3.109466         2.239863         1.017757
