19
Iteration:  1748charge 0 multiplicity 1
 C         4.781386         0.153504        -0.394449
 C         3.305128         0.204355        -0.270853
 C         2.271323         0.782592        -1.230390
 C         1.360544         0.270733        -0.174406
 C         2.416325        -1.036110        -0.141270
 O         2.302623        -1.600567         1.174007
 C         2.621085        -0.480831         2.039474
 C         2.463596         0.720324         0.971307
 O         2.555235         1.967825         1.529077
 H         5.301220        -0.423215         0.362906
 H         5.125785        -0.122977        -1.330543
 H         5.122427         1.162181        -0.290861
 H         2.233354         1.901144        -1.324342
 H         2.281483         0.352028        -2.291886
 H         0.303985         0.258317        -0.080040
 H         2.485329        -1.644657        -0.995237
 H         1.936657        -0.524674         2.856461
 H         3.677718        -0.535487         2.369269
 H         2.271390         2.672128         0.864222
