19
Iteration:  3892
 C         4.888224         0.219347        -0.425977
 C         3.354962         0.366850        -0.225233
 C         2.272263         1.173982        -0.888554
 C         1.392068         0.342942        -0.050548
 C         2.327212        -0.920901        -0.371630
 O         2.279539        -1.688259         0.780401
 C         2.482124        -0.741445         1.882717
 C         2.585233         0.536196         1.071647
 O         2.501082         1.784517         1.751725
 H         5.314787         0.282082        -1.444180
 H         5.483176         0.909499         0.228938
 H         5.111568        -0.815289        -0.273741
 H         2.345391         2.275612        -0.896473
 H         2.042816         1.086558        -1.882604
 H         0.310378         0.268785         0.164874
 H         2.515277        -1.499986        -1.304827
 H         1.622881        -0.735360         2.555663
 H         3.393286        -1.080580         2.413985
 H         2.840340         2.386689         0.992072
