19
Iteration:  3039
 C         4.811200         0.178275        -0.449560
 C         3.309701         0.255193        -0.286756
 C         2.272206         0.997252        -1.176571
 C         1.362941         0.300449        -0.097054
 C         2.287693        -0.850479        -0.284484
 O         2.405734        -1.642445         0.885724
 C         2.581694        -0.671614         1.921007
 C         2.406644         0.608956         1.167776
 O         2.636754         1.873776         1.766357
 H         5.011783        -0.905011        -0.716816
 H         5.261398         0.887826        -1.239638
 H         5.247226         0.433206         0.556184
 H         2.379041         2.237989        -1.259302
 H         2.104308         0.621868        -2.234291
 H         0.214609         0.233337        -0.040157
 H         2.362337        -1.406724        -1.255932
 H         1.928861        -0.964840         2.862373
 H         3.668506        -0.698004         2.299169
 H         1.862558         2.388233         2.038174
