19
Iteration:  1999
 C         4.767641         0.070997        -0.504467
 C         3.305652         0.145867        -0.279399
 C         2.377303         0.997030        -1.181357
 C         1.428146         0.259720        -0.101071
 C         2.421151        -1.017235        -0.152714
 O         2.367369        -1.591415         1.213226
 C         2.600602        -0.470370         2.052992
 C         2.415774         0.662738         1.019553
 O         2.464835         1.957140         1.461836
 H         5.320072        -0.470802         0.326262
 H         4.943020        -0.545433        -1.403273
 H         5.215418         1.122742        -0.623760
 H         2.153524         2.049923        -1.098830
 H         2.315315         0.564616        -2.250767
 H         0.326591         0.202020        -0.194097
 H         2.284033        -1.766454        -0.898394
 H         1.772861        -0.520802         2.764694
 H         3.600558        -0.435462         2.575325
 H         2.060710         2.511458         0.742626
