19
Iteration:  3305
 C         4.820515         0.253904        -0.385677
 C         3.264929         0.319449        -0.317970
 C         2.177953         1.160466        -1.100532
 C         1.342709         0.365049        -0.040942
 C         2.256497        -0.883691        -0.351581
 O         2.482518        -1.700897         0.867933
 C         2.532325        -0.682804         1.871675
 C         2.490662         0.568659         1.010080
 O         2.647995         1.683555         1.892974
 H         5.104316         0.545645        -1.365793
 H         5.195915         0.776414         0.461629
 H         5.143762        -0.769389        -0.314430
 H         2.267274         2.220950        -0.990884
 H         1.993387         0.945169        -2.187286
 H         0.307113         0.443343        -0.088678
 H         2.064239        -1.569496        -1.245761
 H         1.680283        -0.779737         2.562046
 H         3.487042        -0.844284         2.284812
 H         3.145614         2.434293         1.469180
