19
Iteration:  2605charge 0 multiplicity 1
 C         4.771965         0.247482        -0.378883
 C         3.303683         0.234659        -0.332475
 C         2.276085         0.851631        -1.274835
 C         1.397231         0.263564        -0.034286
 C         2.298194        -0.949479        -0.211808
 O         2.426274        -1.674568         1.028294
 C         2.473069        -0.546391         1.948239
 C         2.449047         0.628440         1.014038
 O         2.621023         1.965374         1.705419
 H         5.175293        -0.287923        -1.276378
 H         5.173474         1.276040        -0.549320
 H         5.241189        -0.404330         0.360297
 H         2.074880         2.020636        -1.300146
 H         2.240255         0.364068        -2.231036
 H         0.266301         0.448784        -0.024976
 H         2.239087        -1.723554        -1.117523
 H         1.605008        -0.493398         2.679113
 H         3.380401        -0.720264         2.649204
 H         3.316788         2.453873         1.291765
