19
Iteration:  1549charge 0 multiplicity 1
 C         4.792702         0.194738        -0.378882
 C         3.335553         0.218987        -0.291370
 C         2.287935         0.855237        -1.221990
 C         1.444667         0.248052        -0.070423
 C         2.331482        -1.016874        -0.137907
 O         2.398817        -1.624206         1.222935
 C         2.494143        -0.466053         2.021134
 C         2.438875         0.646102         0.926045
 O         2.545865         1.939462         1.428790
 H         5.357920        -0.288494         0.397157
 H         4.983280        -0.291891        -1.301874
 H         5.172938         1.251092        -0.444980
 H         2.328917         1.973116        -1.299198
 H         2.279589         0.472696        -2.279052
 H         0.283747         0.357332         0.213533
 H         2.231724        -1.821546        -0.968817
 H         1.644098        -0.654924         2.662483
 H         3.416222        -0.338664         2.705979
 H         2.783202         2.479541         0.707595
