19
Iteration:   170
 C         4.891749         0.138280        -0.436436
 C         3.350849         0.211919        -0.316306
 C         2.269900         0.807695        -1.246211
 C         1.413725         0.221569        -0.113554
 C         2.231079        -1.045125        -0.109502
 O         2.366509        -1.581188         1.235894
 C         2.570011        -0.399362         2.029556
 C         2.482804         0.660022         0.963992
 O         2.498049         2.009545         1.403229
 H         5.453096        -0.702759         0.155636
 H         5.216303         0.010090        -1.518340
 H         5.142216         1.188303        -0.142475
 H         2.124344         1.868440        -1.612131
 H         2.258978         0.147054        -2.186479
 H         0.320683         0.323547         0.040877
 H         1.980396        -1.805986        -0.865656
 H         1.891345        -0.289777         2.919029
 H         3.632550        -0.322463         2.395849
 H         2.723534         1.941674         2.301063
