19
Iteration:  1865charge 0 multiplicity 1
 C         4.905604         0.209704        -0.382769
 C         3.367998         0.196116        -0.344140
 C         2.271574         0.821699        -1.196629
 C         1.370763         0.252416        -0.144563
 C         2.191710        -1.054956        -0.122939
 O         2.405172        -1.630165         1.203533
 C         2.557199        -0.429584         1.984317
 C         2.486750         0.674535         0.970817
 O         2.569396         1.920208         1.503452
 H         5.472592        -0.384484         0.408320
 H         5.291487         0.078753        -1.412641
 H         5.163740         1.369269        -0.263212
 H         2.316767         1.977194        -1.233550
 H         2.133842         0.405420        -2.263418
 H         0.201941         0.247627        -0.061189
 H         1.814454        -1.809755        -0.758830
 H         1.646468        -0.256759         2.651707
 H         3.466649        -0.528149         2.620108
 H         2.186598         2.561606         0.811598
