19
Iteration:  4265
 C         4.727989         0.305555        -0.259394
 C         3.247278         0.379616        -0.261424
 C         2.277132         1.142893        -1.118141
 C         1.300763         0.325612        -0.175366
 C         2.360397        -0.925040        -0.335492
 O         2.299542        -1.683142         0.858552
 C         2.559414        -0.708657         1.817276
 C         2.455533         0.616921         1.004870
 O         2.772035         1.635634         1.881534
 H         5.231853         0.622517        -1.188208
 H         5.343674         0.888660         0.616167
 H         5.110011        -0.791518        -0.139288
 H         2.600306         2.229168        -0.946258
 H         2.220541         0.903365        -2.181944
 H         0.182906         0.295531        -0.219149
 H         2.353715        -1.584965        -1.182330
 H         1.776589        -0.644332         2.595284
 H         3.542073        -1.000739         2.263634
 H         2.451399         2.536652         1.449027
