19
Iteration:   919
 C         4.799110         0.086173        -0.498840
 C         3.333836         0.219165        -0.284539
 C         2.304079         0.857476        -1.137393
 C         1.409332         0.282231        -0.119451
 C         2.353671        -1.033419        -0.143754
 O         2.413238        -1.632094         1.179922
 C         2.520012        -0.417663         2.048338
 C         2.499978         0.684366         0.958290
 O         2.444034         1.956776         1.520244
 H         5.397663        -0.170760         0.420838
 H         5.135667        -0.629506        -1.201982
 H         5.218293         1.001872        -0.904738
 H         2.438223         1.915629        -1.286639
 H         2.148633         0.489360        -2.178847
 H         0.377787         0.352057         0.118919
 H         2.332436        -1.648630        -1.096380
 H         1.690850        -0.479129         2.767044
 H         3.529180        -0.303465         2.520644
 H         2.472384         2.483375         0.750509
