19
Iteration:  3230
 C         4.814339         0.320527        -0.441715
 C         3.311391         0.176956        -0.364934
 C         2.252367         1.187485        -0.950278
 C         1.468008         0.398773         0.000306
 C         2.180811        -0.898573        -0.335640
 O         2.413610        -1.757447         0.888475
 C         2.515401        -0.692473         1.864114
 C         2.599754         0.495043         1.088043
 O         2.603276         1.794564         1.706219
 H         4.987253         1.455230        -0.392095
 H         5.246714        -0.279188         0.385912
 H         5.294033        -0.007193        -1.485678
 H         2.405518         2.212068        -0.688108
 H         1.915455         1.165440        -2.054610
 H         0.387039         0.434262         0.249400
 H         2.008247        -1.694296        -1.099617
 H         1.583154        -0.754418         2.473954
 H         3.339956        -0.898392         2.652596
 H         1.968975         2.254979         1.097996
