19
Iteration:  3024
 C         4.815487         0.117550        -0.412577
 C         3.283423         0.315094        -0.240959
 C         2.257695         1.143577        -1.062683
 C         1.357323         0.273271        -0.080996
 C         2.327709        -0.928377        -0.298586
 O         2.345690        -1.681427         0.925608
 C         2.678548        -0.689485         1.913540
 C         2.441243         0.627457         1.010190
 O         2.596101         1.910405         1.650043
 H         5.141301        -0.801955        -0.862036
 H         5.166413         0.936844        -0.990958
 H         5.430113         0.167498         0.518894
 H         2.282199         2.249273        -0.801923
 H         2.276103         0.911454        -2.152225
 H         0.222432         0.133737         0.019931
 H         2.153243        -1.610271        -1.081685
 H         1.946817        -0.756697         2.763741
 H         3.702641        -0.855789         2.321029
 H         1.776438         2.001923         2.088169
