19
Iteration:  1569charge 0 multiplicity 1
 C         4.886792         0.136734        -0.435918
 C         3.289765         0.093577        -0.322574
 C         2.258962         0.908037        -1.124942
 C         1.394830         0.223072        -0.107997
 C         2.273853        -1.038232        -0.145885
 O         2.514913        -1.630464         1.120060
 C         2.424378        -0.428886         2.076440
 C         2.517663         0.665150         1.008661
 O         2.557604         2.014240         1.450517
 H         5.148193        -0.084787         0.555508
 H         5.483676        -0.428679        -1.095365
 H         5.048469         1.194924        -0.507215
 H         2.259279         2.000713        -1.052865
 H         2.004937         0.654506        -2.330996
 H         0.202694         0.191463        -0.252102
 H         2.242229        -1.939966        -0.820627
 H         1.372382        -0.368870         2.499020
 H         3.190535        -0.215362         2.871865
 H         2.442786         2.485384         0.608013
