19
Iteration:  3620
 C         4.832748         0.222561        -0.290941
 C         3.292805         0.232421        -0.420756
 C         2.303751         1.189853        -1.123382
 C         1.375594         0.478758        -0.154142
 C         2.236873        -0.920664        -0.254947
 O         2.374267        -1.697009         0.911912
 C         2.582342        -0.684021         1.812022
 C         2.425276         0.573484         1.007030
 O         2.652407         1.623323         1.891575
 H         5.343387         0.730408        -1.118736
 H         5.278028         0.954303         0.446069
 H         5.262253        -0.722072        -0.217606
 H         2.412825         2.252098        -1.047352
 H         2.071385         1.051936        -2.158665
 H         0.292782         0.480844        -0.146275
 H         1.925598        -1.439433        -1.239964
 H         1.765377        -0.712392         2.542434
 H         3.480119        -0.617358         2.455711
 H         2.253618         2.421899         1.706109
