19
Iteration:  1134
 C         4.811577         0.154740        -0.465118
 C         3.349849         0.242802        -0.285690
 C         2.336813         0.954974        -1.220201
 C         1.412786         0.152591        -0.124820
 C         2.326012        -1.055652        -0.141484
 O         2.331952        -1.585542         1.224831
 C         2.637346        -0.440619         2.020161
 C         2.503541         0.652058         1.016267
 O         2.434679         1.931017         1.449437
 H         5.198589        -0.002615         0.497907
 H         5.085865        -0.708591        -1.011483
 H         5.421460         1.041637        -0.773364
 H         2.054947         1.980168        -1.178221
 H         2.199852         0.455383        -2.178792
 H         0.322399         0.374877        -0.028399
 H         1.936760        -1.780407        -0.821495
 H         1.934626        -0.346382         2.894250
 H         3.631322        -0.724756         2.433743
 H         2.512444         2.599177         0.766740
