19
Iteration:   365charge 0 multiplicity 1
 C         4.858367         0.054750        -0.439906
 C         3.374799         0.086260        -0.250233
 C         2.322395         0.846047        -1.144245
 C         1.391649         0.195846        -0.107926
 C         2.267274        -0.999498        -0.144138
 O         2.471269        -1.586657         1.159862
 C         2.482792        -0.330411         2.026995
 C         2.470555         0.746124         0.932495
 O         2.490864         2.019182         1.480484
 H         5.266271        -0.762715         0.196613
 H         5.086036        -0.019562        -1.496051
 H         5.150475         0.940072        -0.076928
 H         2.316925         1.849042        -1.282990
 H         2.280652         0.407802        -2.157154
 H         0.306327        -0.131923        -0.092684
 H         2.117533        -1.818707        -0.941727
 H         1.560940        -0.385633         2.633676
 H         3.340367        -0.453168         2.675333
 H         2.272964         2.617655         0.800347
