19
Iteration:  1820charge 0 multiplicity 1
 C         4.829948         0.085777        -0.444652
 C         3.363785         0.230219        -0.236955
 C         2.216016         0.823108        -1.276353
 C         1.359186         0.209805        -0.116731
 C         2.317611        -0.951277        -0.113542
 O         2.555042        -1.600582         1.139678
 C         2.392464        -0.459460         1.984907
 C         2.417482         0.707127         0.952719
 O         2.598469         1.963581         1.607790
 H         5.197202        -0.234810         0.553833
 H         5.016739        -0.809507        -1.119329
 H         5.471173         0.980803        -0.804751
 H         2.208295         1.973033        -1.455038
 H         2.152052         0.319137        -2.262348
 H         0.204334         0.268366        -0.074488
 H         2.467820        -1.650638        -0.957091
 H         1.484829        -0.479244         2.661214
 H         3.294903        -0.268026         2.560510
 H         2.396649         2.697049         0.928971
