19
Iteration:  4306charge 0 multiplicity 1
 C         4.821153         0.286539        -0.298081
 C         3.274098         0.334800        -0.280139
 C         2.277434         1.105796        -1.077317
 C         1.408784         0.499102        -0.002483
 C         2.281288        -0.885294        -0.314694
 O         2.414591        -1.752720         0.769121
 C         2.460098        -0.805314         1.790611
 C         2.523741         0.514773         1.074719
 O         2.649181         1.754866         1.827844
 H         5.109889        -0.018818        -1.293733
 H         5.135379         1.276774         0.000135
 H         5.165660        -0.358279         0.500296
 H         2.394660         2.199380        -1.080229
 H         2.146247         0.828510        -2.155259
 H         0.338710         0.558840        -0.022626
 H         1.909871        -1.492523        -1.221572
 H         1.498700        -0.964144         2.255262
 H         3.274639        -0.811516         2.515596
 H         2.556029         2.478684         1.215918
