19
Iteration:  3044
 C         4.780067         0.206973        -0.443820
 C         3.335463         0.261197        -0.309914
 C         2.283037         0.988900        -1.178054
 C         1.366202         0.372047        -0.109924
 C         2.295461        -0.868950        -0.266598
 O         2.431580        -1.672091         0.876274
 C         2.548326        -0.635159         1.932391
 C         2.396544         0.600361         1.141588
 O         2.657186         1.847133         1.798361
 H         4.986102        -0.844687        -0.608299
 H         5.180298         0.805980        -1.215465
 H         5.325951         0.451710         0.454852
 H         2.175445         1.965348        -1.329878
 H         2.050812         0.475163        -2.103701
 H         0.314931         0.363347        -0.010606
 H         2.290464        -1.459035        -1.197566
 H         1.976417        -0.887583         2.753691
 H         3.547095        -0.765032         2.303332
 H         1.780006         2.337149         1.947255
