19
Iteration:  3519charge 0 multiplicity 1
 C         4.832280         0.194034        -0.412001
 C         3.329829         0.343737        -0.304054
 C         2.316616         1.169955        -1.103315
 C         1.411682         0.430292        -0.132933
 C         2.341878        -0.887722        -0.317375
 O         2.313324        -1.726615         0.871054
 C         2.549513        -0.723668         1.890149
 C         2.412058         0.624892         1.053977
 O         2.519515         1.707621         1.841477
 H         5.318202         0.596765        -1.339769
 H         5.338788         0.846425         0.341533
 H         5.250981        -0.792869        -0.321171
 H         2.219051         2.262272        -0.933244
 H         2.118407         0.807557        -2.056382
 H         0.332055         0.256931        -0.153303
 H         2.070492        -1.507787        -1.233003
 H         1.781600        -0.519318         2.592140
 H         3.553576        -0.761831         2.318694
 H         3.457563         1.639345         2.263564
