19
Iteration:  3219
 C         4.759785         0.255039        -0.482790
 C         3.301202         0.232858        -0.301028
 C         2.252185         1.258139        -0.970609
 C         1.415602         0.347026         0.003284
 C         2.281858        -0.932491        -0.308538
 O         2.455864        -1.730922         0.871933
 C         2.492342        -0.752451         1.964315
 C         2.528339         0.539623         1.017308
 O         2.633375         1.802075         1.663715
 H         5.130122         1.192128         0.001391
 H         5.252194        -0.496657         0.183741
 H         5.206813         0.091239        -1.547942
 H         2.384773         2.282483        -0.696526
 H         2.101466         1.110099        -2.090009
 H         0.340031         0.389138         0.200052
 H         2.041125        -1.433888        -1.265530
 H         1.523180        -0.667130         2.507378
 H         3.381639        -1.002536         2.642257
 H         1.946307         2.359913         1.402837
