19
Iteration:  3790charge 0 multiplicity 1
 C         4.780198         0.263485        -0.317130
 C         3.282600         0.261048        -0.195273
 C         2.406927         1.255435        -0.987813
 C         1.343757         0.346499        -0.036375
 C         2.240690        -0.868055        -0.460167
 O         2.366324        -1.752565         0.793200
 C         2.507243        -0.739209         1.817433
 C         2.430641         0.551357         1.129067
 O         2.688343         1.746359         1.719707
 H         5.172238        -0.634211        -0.896638
 H         5.250285         1.130590        -0.724205
 H         5.318365         0.441565         0.635126
 H         2.626087         2.275673        -0.726896
 H         2.332998         0.988326        -2.022947
 H         0.279152         0.491724         0.195905
 H         2.140765        -1.552520        -1.350090
 H         1.692655        -0.824051         2.589389
 H         3.460674        -1.064370         2.315267
 H         2.051015         2.336525         1.352465
