19
Iteration:  3586
 C         4.787660         0.193172        -0.353319
 C         3.347491         0.302088        -0.187454
 C         2.262314         1.132636        -1.036391
 C         1.362279         0.329377        -0.088222
 C         2.311551        -0.803860        -0.295279
 O         2.375863        -1.671675         0.799699
 C         2.492128        -0.751227         1.848193
 C         2.476166         0.596074         1.033673
 O         2.653754         1.769890         1.805338
 H         5.101345         0.694804        -1.282541
 H         5.366094         0.419415         0.604758
 H         5.114224        -0.789671        -0.587311
 H         2.203988         2.234203        -0.933530
 H         2.203032         0.705447        -1.992175
 H         0.288428         0.279334        -0.191205
 H         2.222538        -1.388708        -1.342381
 H         1.524677        -0.780625         2.341385
 H         3.379674        -1.069267         2.433500
 H         2.751451         2.488318         1.194548
