19
Iteration:  3002charge 0 multiplicity 1
 C         4.816276         0.182450        -0.410757
 C         3.278144         0.272828        -0.289750
 C         2.251184         1.205122        -0.992716
 C         1.459132         0.330238        -0.002723
 C         2.225893        -0.946397        -0.311963
 O         2.392874        -1.703931         0.977607
 C         2.618526        -0.649741         1.914192
 C         2.539066         0.553128         1.021301
 O         2.508720         1.812022         1.457406
 H         5.212740        -0.603921        -1.026831
 H         5.343494         1.089530        -0.601518
 H         5.145517        -0.146041         0.602806
 H         2.588641         2.174962        -0.606651
 H         2.019083         1.174899        -2.087471
 H         0.348485         0.513247         0.163763
 H         2.186826        -1.611956        -1.139482
 H         1.822131        -0.617862         2.705170
 H         3.622022        -0.606864         2.443806
 H         2.127559         1.873869         2.414254
