19
Iteration:  2188
 C         4.771096         0.040165        -0.410461
 C         3.323078         0.141748        -0.293731
 C         2.241156         0.784760        -1.275560
 C         1.437254         0.244682        -0.075005
 C         2.333596        -0.947120        -0.135285
 O         2.559714        -1.558128         1.121032
 C         2.471319        -0.391842         2.005129
 C         2.466450         0.705662         0.970975
 O         2.519141         1.998474         1.600165
 H         5.129149        -0.980622        -0.272173
 H         5.188610         0.380085        -1.399059
 H         5.247628         0.588001         0.394264
 H         2.018227         1.847591        -1.417807
 H         2.091084         0.338926        -2.378190
 H         0.397944         0.288460         0.022837
 H         2.077924        -1.728815        -0.984904
 H         1.469268        -0.410958         2.336029
 H         3.178621        -0.509532         2.865457
 H         2.523462         2.556578         0.845073
