19
Iteration:  3490charge 0 multiplicity 1
 C         4.789754         0.210637        -0.341660
 C         3.284770         0.337351        -0.201675
 C         2.347752         1.076641        -1.091700
 C         1.400081         0.387446        -0.042813
 C         2.201982        -0.866300        -0.358371
 O         2.379833        -1.707990         0.706851
 C         2.567734        -0.762661         1.876709
 C         2.510150         0.615821         1.071658
 O         2.594631         1.837046         1.781906
 H         5.057690         0.013542        -1.379885
 H         5.245680         1.167195         0.139572
 H         5.429648        -0.516984         0.171047
 H         2.193835         2.145137        -1.179585
 H         2.202096         0.565306        -2.120541
 H         0.332685         0.473382         0.193582
 H         2.075340        -1.434073        -1.383483
 H         1.645361        -0.700947         2.545998
 H         3.534853        -1.042458         2.428570
 H         2.567359         1.625594         2.783413
