19
Iteration:  1142
 C         4.855618         0.182353        -0.437089
 C         3.273104         0.233476        -0.284598
 C         2.289016         0.885228        -1.157804
 C         1.415850         0.213813        -0.140307
 C         2.260666        -1.065254        -0.091993
 O         2.314826        -1.634677         1.208398
 C         2.657965        -0.467883         1.988676
 C         2.515830         0.649982         0.948845
 O         2.450023         1.980965         1.479903
 H         5.237219        -0.010485         0.600381
 H         5.249906        -0.697549        -1.030794
 H         5.485473         1.021423        -0.868704
 H         2.399540         2.059511        -1.447779
 H         2.264062         0.481612        -2.165215
 H         0.377113         0.209998        -0.097099
 H         2.330741        -1.772382        -0.987039
 H         2.011039        -0.432448         2.922331
 H         3.770982        -0.273545         2.314421
 H         2.509759         2.637157         0.820491
