19
Iteration:  1623
 C         4.864045         0.095763        -0.385950
 C         3.343609         0.177791        -0.240285
 C         2.322764         0.805307        -1.302155
 C         1.399204         0.223167        -0.118793
 C         2.251152        -1.017425        -0.173956
 O         2.411699        -1.585522         1.144930
 C         2.603859        -0.442674         1.967242
 C         2.452795         0.725681         0.935254
 O         2.466134         2.011453         1.632548
 H         5.360109        -0.379303         0.452458
 H         5.092636        -0.546538        -1.281418
 H         5.311411         1.096104        -0.471476
 H         2.317153         1.870434        -1.402711
 H         2.180926         0.278904        -2.411654
 H         0.231028         0.169642        -0.118611
 H         2.090241        -1.927692        -0.809612
 H         1.922955        -0.252931         2.866954
 H         3.623254        -0.355271         2.419678
 H         2.077583         2.769623         1.122212
