19
Iteration:  1941charge 0 multiplicity 1
 C         4.774126         0.142796        -0.376638
 C         3.274306         0.106063        -0.376589
 C         2.262855         0.827176        -1.282179
 C         1.400874         0.287425        -0.086942
 C         2.322187        -1.030172        -0.127420
 O         2.540209        -1.554984         1.182218
 C         2.495069        -0.381221         2.007854
 C         2.461372         0.703273         0.907726
 O         2.565058         1.915603         1.579668
 H         4.927067        -0.892303        -0.012990
 H         5.319984         0.201226        -1.290526
 H         5.256639         0.784459         0.363683
 H         2.086943         1.979854        -1.537689
 H         1.947999         0.418522        -2.233719
 H         0.250574         0.026271         0.051391
 H         2.285885        -1.729450        -0.926373
 H         1.537756        -0.508302         2.578381
 H         3.255964        -0.260559         2.748067
 H         2.667336         2.694589         1.058327
