19
Iteration:  3376charge 0 multiplicity 1
 C         4.791797         0.262668        -0.459775
 C         3.335486         0.326591        -0.276631
 C         2.297146         1.202507        -1.034141
 C         1.398143         0.386035        -0.130049
 C         2.284747        -0.876110        -0.374662
 O         2.341354        -1.692524         0.891802
 C         2.598023        -0.689622         1.861085
 C         2.462212         0.535353         1.038085
 O         2.578053         1.699939         1.832123
 H         4.905258        -0.635220        -1.124956
 H         5.246786         1.213136        -0.800390
 H         5.459102        -0.046906         0.416643
 H         2.382807         2.334438        -0.978208
 H         2.056104         0.970300        -2.067082
 H         0.306001         0.144592         0.038475
 H         2.126041        -1.393740        -1.276802
 H         1.775220        -0.775221         2.595835
 H         3.661356        -0.794952         2.278472
 H         2.461328         1.440711         2.818423
