19
Iteration:  2478charge 0 multiplicity 1
 C         4.844937         0.143511        -0.447768
 C         3.337005         0.247343        -0.360781
 C         2.309793         0.942071        -1.176268
 C         1.374646         0.242337        -0.098304
 C         2.331047        -0.968636        -0.181306
 O         2.446827        -1.587696         1.170580
 C         2.481211        -0.451000         1.963190
 C         2.473310         0.610475         0.991465
 O         2.504105         1.818122         1.597197
 H         5.166180         0.856490        -1.240551
 H         5.440547         0.219949         0.435154
 H         5.280147        -0.880655        -0.635932
 H         2.206877         2.008856        -1.154841
 H         2.039076         0.827082        -2.362545
 H         0.230012         0.334699        -0.032646
 H         2.012182        -1.663066        -0.880741
 H         1.599571        -0.361560         2.620925
 H         3.341042        -0.534985         2.608625
 H         2.749903         2.654258         1.056664
