19
Iteration:   517charge 0 multiplicity 1
 C         4.840462         0.123722        -0.398956
 C         3.379266         0.187042        -0.248121
 C         2.335420         0.745515        -1.307753
 C         1.372896         0.259487        -0.120408
 C         2.293476        -0.948040        -0.129041
 O         2.338610        -1.548515         1.188526
 C         2.644603        -0.421956         1.994614
 C         2.432858         0.710509         0.906975
 O         2.435468         1.917077         1.583646
 H         5.355245        -0.673223         0.227492
 H         5.107053        -0.019331        -1.461982
 H         5.209460         1.081437        -0.120883
 H         2.309847         1.792468        -1.395201
 H         2.298482         0.164521        -2.265350
 H         0.275616         0.113730         0.021830
 H         2.251283        -1.796980        -0.943148
 H         1.943861        -0.210369         2.821105
 H         3.685822        -0.454942         2.391704
 H         2.684098         2.579719         0.984374
