19
Iteration:   680charge 0 multiplicity 1
 C         4.825050         0.176324        -0.422742
 C         3.328668         0.205107        -0.310259
 C         2.255655         0.893994        -1.200383
 C         1.385406         0.227524        -0.020639
 C         2.423355        -1.030128        -0.131845
 O         2.403811        -1.567920         1.180148
 C         2.520003        -0.472585         1.987070
 C         2.358699         0.602677         0.960269
 O         2.540990         1.962335         1.441742
 H         5.210828        -0.195558         0.601097
 H         5.164085        -0.688697        -1.100950
 H         5.233609         1.129496        -0.786472
 H         2.431855         2.108543        -1.113453
 H         2.221064         0.470017        -2.170768
 H         0.380062         0.458824         0.124793
 H         2.283702        -1.947687        -0.867622
 H         1.685074        -0.721003         2.660607
 H         3.394321        -0.356916         2.659703
 H         2.814994         2.545549         0.682341
