19
Iteration:  1761
 C         4.822225         0.189159        -0.435197
 C         3.318978         0.215453        -0.238276
 C         2.330063         0.893000        -1.228951
 C         1.401327         0.140145        -0.147139
 C         2.289893        -0.976289        -0.149141
 O         2.317809        -1.569965         1.160046
 C         2.644074        -0.499837         2.024600
 C         2.428679         0.631304         1.062971
 O         2.516580         2.007255         1.486581
 H         5.122804        -0.396626         0.432149
 H         4.987539        -0.475867        -1.278939
 H         5.357317         1.062526        -0.491110
 H         2.525160         2.076198        -1.421800
 H         2.206422         0.369377        -2.138744
 H         0.390781         0.035824        -0.260589
 H         2.283878        -1.892294        -0.780557
 H         2.067789        -0.479866         2.912217
 H         3.684770        -0.561832         2.300909
 H         2.296504         2.503479         0.696630
