19
Iteration:  3291charge 0 multiplicity 1
 C         4.735700         0.240007        -0.432532
 C         3.246190         0.336925        -0.271013
 C         2.229393         1.109561        -1.141426
 C         1.313212         0.264543        -0.224906
 C         2.282985        -0.872981        -0.316438
 O         2.378937        -1.693323         0.840154
 C         2.615868        -0.651395         1.849937
 C         2.443750         0.651191         1.097111
 O         2.715777         1.685731         1.989124
 H         5.150796         0.917323        -1.151340
 H         5.232624         0.729685         0.447099
 H         5.054142        -0.739359        -0.497615
 H         2.045450         2.184857        -0.951104
 H         2.273793         0.803919        -2.145041
 H         0.283294         0.080129         0.071948
 H         2.358634        -1.441741        -1.270910
 H         1.891140        -0.706716         2.663729
 H         3.589955        -0.539813         2.304814
 H         3.297728         2.236085         1.509388
