19
Iteration:  2273
 C         4.860746         0.282297        -0.371902
 C         3.350803         0.190458        -0.228259
 C         2.312527         0.774680        -1.310472
 C         1.351032         0.290651        -0.093168
 C         2.212484        -1.030419        -0.116876
 O         2.318609        -1.619038         1.139182
 C         2.598851        -0.483885         1.973280
 C         2.496732         0.653061         0.966084
 O         2.554777         1.950310         1.570282
 H         5.314814        -0.141522         0.505459
 H         5.110102        -0.443056        -1.145235
 H         5.215083         1.308552        -0.619500
 H         2.239181         1.879678        -1.678425
 H         2.124436         0.196034        -2.192260
 H         0.280413         0.164354         0.047901
 H         2.308549        -1.765748        -1.016235
 H         1.976395        -0.382868         2.903555
 H         3.707545        -0.534991         2.183424
 H         2.647843         2.643493         0.820338
