19
Iteration:  2663
 C         4.883133         0.124903        -0.496183
 C         3.289545         0.206392        -0.240874
 C         2.319764         1.064364        -1.066277
 C         1.391915         0.246733        -0.070541
 C         2.281553        -0.979750        -0.190563
 O         2.374016        -1.705561         1.009982
 C         2.600263        -0.619600         1.997728
 C         2.473939         0.612910         1.085083
 O         2.419978         2.055669         1.453812
 H         4.993563        -0.899361        -0.930422
 H         5.130272         0.891206        -1.261193
 H         5.483516         0.456691         0.396447
 H         2.239876         2.178760        -0.943020
 H         2.143641         0.802937        -2.151248
 H         0.289177         0.254587        -0.114353
 H         2.364159        -1.635097        -0.920990
 H         1.905397        -0.621681         2.860478
 H         3.728320        -0.767706         2.308304
 H         3.228199         2.213521         2.085124
