19
Iteration:  4605
 C         4.824420         0.341266        -0.316964
 C         3.323672         0.353181        -0.314881
 C         2.230007         1.123757        -1.147219
 C         1.392432         0.388441        -0.142142
 C         2.238752        -0.901302        -0.290350
 O         2.318879        -1.738038         0.798086
 C         2.599862        -0.697979         1.843677
 C         2.420508         0.557843         1.055190
 O         2.631622         1.688988         1.878046
 H         5.387096        -0.241567        -0.991065
 H         5.285444         1.376496        -0.389484
 H         5.099208        -0.027421         0.681419
 H         2.372124         2.277744        -1.073917
 H         2.063260         0.796050        -2.228791
 H         0.270103         0.611149        -0.053054
 H         2.145894        -1.418159        -1.291358
 H         1.804310        -1.003384         2.556371
 H         3.613960        -0.843503         2.341604
 H         3.488296         1.614113         2.351872
