19
Iteration:   651charge 0 multiplicity 1
 C         4.822973         0.247904        -0.476987
 C         3.366544         0.209095        -0.295645
 C         2.321951         0.823319        -1.226929
 C         1.420064         0.122304        -0.198801
 C         2.223189        -1.078464        -0.178495
 O         2.300285        -1.586433         1.228228
 C         2.621393        -0.454974         2.046507
 C         2.515270         0.665848         0.984462
 O         2.502249         2.022016         1.586241
 H         5.243202         0.021650         0.482608
 H         5.179201        -0.426227        -1.301907
 H         5.130473         1.261229        -0.686271
 H         2.235483         1.830071        -1.277368
 H         2.448599         0.229961        -2.209272
 H         0.288732         0.420080        -0.377686
 H         2.051882        -1.934384        -0.830072
 H         1.836678        -0.594574         2.817400
 H         3.598305        -0.464958         2.555199
 H         2.747050         2.615135         0.930708
