19
Iteration:  3269
 C         4.748887         0.339387        -0.426494
 C         3.267532         0.373622        -0.234654
 C         2.229692         1.081348        -1.155987
 C         1.340000         0.297648        -0.151221
 C         2.334197        -0.907872        -0.324835
 O         2.272044        -1.677383         0.895027
 C         2.603616        -0.756554         1.858607
 C         2.500173         0.585657         1.117918
 O         2.703003         1.699211         1.916890
 H         5.086074         1.188042        -0.992356
 H         5.506978         0.439056         0.360505
 H         4.910536        -0.552536        -0.903930
 H         2.254407         2.201890        -1.139530
 H         2.166934         0.644475        -2.114106
 H         0.239165         0.359339        -0.309341
 H         2.348833        -1.366377        -1.311265
 H         2.052158        -0.774360         2.795967
 H         3.650165        -0.765311         2.134564
 H         2.990987         2.453124         1.275115
