19
Iteration:  4153
 C         4.852930         0.212037        -0.342739
 C         3.289142         0.354379        -0.305289
 C         2.313457         1.110020        -1.138795
 C         1.364093         0.450437        -0.082149
 C         2.235083        -0.836505        -0.319653
 O         2.400398        -1.708087         0.781749
 C         2.485222        -0.775182         1.857086
 C         2.534648         0.572737         1.040414
 O         2.578992         1.689888         1.911754
 H         5.385591        -0.045493        -1.276665
 H         5.219081         1.260988        -0.137082
 H         5.091593        -0.528606         0.432921
 H         2.532811         2.126081        -0.860089
 H         2.306828         0.887918        -2.232981
 H         0.328977         0.569783         0.179510
 H         2.278815        -1.437270        -1.262874
 H         1.593012        -0.844865         2.487037
 H         3.381044        -0.933696         2.481540
 H         2.418071         2.517881         1.559573
