19
Iteration:  2466charge 0 multiplicity 1
 C         4.888941         0.139431        -0.455233
 C         3.346786         0.211964        -0.282302
 C         2.217709         1.010435        -1.150218
 C         1.395169         0.244429        -0.111870
 C         2.248132        -0.999040        -0.141899
 O         2.484626        -1.664302         1.111456
 C         2.418043        -0.508580         2.033470
 C         2.500619         0.648787         0.958619
 O         2.554044         1.912874         1.531617
 H         5.307633         0.969304        -1.094578
 H         5.177450         0.466495         0.516052
 H         5.221519        -0.827603        -0.907438
 H         2.331886         2.040525        -0.915055
 H         2.147280         0.759815        -2.293448
 H         0.239935         0.188022         0.034140
 H         2.377291        -1.701048        -0.880438
 H         1.440727        -0.473512         2.536524
 H         3.248077        -0.435062         2.741737
 H         2.808196         2.408609         0.745470
