19
Iteration:  4856
 C         4.827787         0.229269        -0.405236
 C         3.286055         0.273763        -0.209233
 C         2.285736         1.159392        -1.069095
 C         1.344913         0.352677        -0.150127
 C         2.229108        -0.813209        -0.333861
 O         2.389771        -1.749987         0.850766
 C         2.666276        -0.726045         1.878272
 C         2.449449         0.583221         1.086775
 O         2.580358         1.738393         1.838248
 H         5.080725         0.799196        -1.348871
 H         5.518045         0.844024         0.290513
 H         5.168228        -0.798982        -0.605193
 H         2.265351         2.248718        -0.833784
 H         2.303807         0.996912        -2.132427
 H         0.227121         0.177662        -0.186301
 H         2.126985        -1.343797        -1.282455
 H         1.974442        -0.824058         2.694775
 H         3.739155        -0.778826         2.207619
 H         2.103205         2.490852         1.582258
