19
Iteration:  1022
 C         4.758542         0.261365        -0.338342
 C         3.313042         0.132607        -0.274626
 C         2.302763         0.865920        -1.209548
 C         1.412366         0.197456        -0.086606
 C         2.296259        -1.040962        -0.138796
 O         2.322115        -1.579595         1.180400
 C         2.652656        -0.470527         2.005799
 C         2.486093         0.697563         0.992318
 O         2.519035         1.924964         1.370055
 H         5.039978        -0.680214         0.107167
 H         5.097700         0.317543        -1.408830
 H         5.221594         0.889818         0.465096
 H         2.311817         2.018801        -1.160914
 H         2.154175         0.390702        -2.152822
 H         0.375785         0.463852        -0.059693
 H         2.289565        -1.788930        -0.958394
 H         2.099439        -0.586278         3.022810
 H         3.788765        -0.408720         2.396977
 H         2.597936         2.481815         0.514508
