19
Iteration:  2184
 C         4.793482         0.035220        -0.413218
 C         3.321079         0.139861        -0.308716
 C         2.245846         0.758167        -1.252435
 C         1.440986         0.271569        -0.076720
 C         2.306041        -0.971198        -0.156599
 O         2.551220        -1.543519         1.136215
 C         2.465371        -0.359808         1.962279
 C         2.485781         0.700092         0.950697
 O         2.501699         1.982154         1.630984
 H         5.184318        -0.974918        -0.325540
 H         5.154671         0.335762        -1.339938
 H         5.336747         0.604187         0.375321
 H         1.936183         1.923787        -1.292951
 H         2.129071         0.364648        -2.205400
 H         0.323233         0.204204        -0.014782
 H         2.261249        -1.743383        -0.883292
 H         1.441771        -0.376698         2.454313
 H         3.262779        -0.467131         2.687416
 H         2.529176         2.575890         0.788697
