19
Iteration:  2215
 C         4.793657         0.154303        -0.385705
 C         3.315679         0.186576        -0.218824
 C         2.254656         0.864041        -1.208282
 C         1.350785         0.311558        -0.098508
 C         2.339138        -1.010562        -0.130957
 O         2.525555        -1.655540         1.182564
 C         2.462544        -0.499510         2.001259
 C         2.380147         0.650900         0.962079
 O         2.652476         2.010193         1.409681
 H         5.070212        -0.919382        -0.108722
 H         5.133300         0.319872        -1.417522
 H         5.391721         0.784916         0.340449
 H         2.001638         1.940893        -1.230774
 H         2.168411         0.518655        -2.173780
 H         0.167652         0.376238        -0.067733
 H         2.416175        -1.680805        -0.920774
 H         1.522542        -0.562931         2.698657
 H         3.325364        -0.424757         2.674268
 H         2.306413         2.432879         0.655700
