19
Iteration:  1706charge 0 multiplicity 1
 C         4.792887         0.204860        -0.368842
 C         3.283783         0.132283        -0.328535
 C         2.228591         0.830611        -1.284455
 C         1.352500         0.216771        -0.133346
 C         2.330363        -0.972530        -0.114900
 O         2.543373        -1.574714         1.155345
 C         2.398038        -0.454918         2.081485
 C         2.456517         0.630930         0.973453
 O         2.663200         1.937298         1.490778
 H         5.245766        -0.687478         0.123288
 H         5.282647         0.290291        -1.353852
 H         5.070449         1.069318         0.209456
 H         2.193616         2.040876        -1.362971
 H         2.183629         0.375688        -2.230226
 H         0.370329         0.459434        -0.056772
 H         2.138272        -1.848048        -0.684363
 H         1.418185        -0.314318         2.488520
 H         3.139739        -0.546218         2.846166
 H         2.650322         2.645919         0.761624
