19
Iteration:   636
 C         4.859190         0.275252        -0.453578
 C         3.315431         0.156096        -0.291378
 C         2.333771         0.766266        -1.337443
 C         1.377761         0.279718        -0.147993
 C         2.336209        -1.050819        -0.041157
 O         2.299270        -1.608709         1.197982
 C         2.569537        -0.428082         1.998499
 C         2.425715         0.674420         0.968939
 O         2.519414         1.922193         1.585351
 H         5.455760        -0.196922         0.392280
 H         5.199467        -0.350925        -1.324434
 H         5.136881         1.315200        -0.658752
 H         2.490465         1.965288        -1.364723
 H         2.137632         0.363408        -2.294946
 H         0.374706         0.103716         0.071659
 H         2.331091        -1.861529        -0.868949
 H         1.972936        -0.185784         2.875087
 H         3.597495        -0.575598         2.335139
 H         2.685854         2.676969         0.937389
