19
Iteration:  4014
 C         4.752692         0.195933        -0.428130
 C         3.309569         0.273999        -0.142462
 C         2.467256         1.233983        -1.002243
 C         1.380416         0.422906        -0.149023
 C         2.287062        -0.865456        -0.344043
 O         2.439925        -1.697835         0.780324
 C         2.498605        -0.830533         1.905737
 C         2.386711         0.541719         1.102908
 O         2.515850         1.778198         1.795940
 H         4.753754         0.149511        -1.504255
 H         5.287722         1.193153        -0.354651
 H         5.348133        -0.706246        -0.148317
 H         2.234722         2.267207        -0.539848
 H         2.527419         1.173171        -2.089727
 H         0.237087         0.462192         0.006308
 H         2.282363        -1.571542        -1.155817
 H         1.785559        -1.066284         2.741389
 H         3.526750        -0.954962         2.406047
 H         2.834980         2.436801         1.083929
