19
Iteration:  4739charge 0 multiplicity 1
 C         4.815667         0.151110        -0.353606
 C         3.313472         0.282487        -0.307906
 C         2.251148         1.185681        -1.110767
 C         1.413881         0.351898        -0.000812
 C         2.316071        -0.867730        -0.340157
 O         2.371601        -1.688069         0.825809
 C         2.651445        -0.629152         1.804766
 C         2.451609         0.633775         1.005799
 O         2.513524         1.664036         1.920520
 H         5.128169         0.731103        -1.250744
 H         5.205602         0.678222         0.462065
 H         5.096866        -0.866243        -0.364026
 H         2.201587         2.277390        -0.989307
 H         2.013421         0.949547        -2.196470
 H         0.366132         0.187733         0.112358
 H         2.251176        -1.383156        -1.292268
 H         2.017302        -0.822574         2.698818
 H         3.708924        -0.806057         2.056855
 H         2.389959         2.479296         1.432796
