19
Iteration:   136
 C         4.760835         0.144556        -0.393452
 C         3.309571         0.189565        -0.273726
 C         2.298543         0.914187        -1.214875
 C         1.401870         0.226079        -0.151586
 C         2.318967        -1.060262        -0.087632
 O         2.318050        -1.697019         1.288878
 C         2.641024        -0.443327         2.004337
 C         2.503344         0.654403         0.903222
 O         2.529148         2.071800         1.302207
 H         5.267906        -0.597094         0.419092
 H         5.056909         0.219826        -1.454471
 H         4.967984         1.130689         0.051668
 H         2.133148         1.992704        -1.277365
 H         2.211027         0.281387        -2.201420
 H         0.313379         0.402298         0.011069
 H         2.234357        -1.876734        -0.856373
 H         2.028205        -0.304051         2.918134
 H         3.740006        -0.551551         2.277852
 H         2.779659         2.151191         2.185951
