19
Iteration:  2655
 C         4.805084         0.152447        -0.530630
 C         3.333874         0.230029        -0.218180
 C         2.300468         1.049148        -1.069248
 C         1.407038         0.224360        -0.123034
 C         2.303697        -0.951351        -0.184819
 O         2.330566        -1.667144         1.058494
 C         2.639129        -0.620053         1.985777
 C         2.498363         0.641015         1.042714
 O         2.403762         1.988516         1.494988
 H         5.176327        -0.828910        -0.856463
 H         5.158246         0.915716        -1.227602
 H         5.350005         0.289765         0.441450
 H         2.562768         2.039585        -0.984215
 H         2.249226         0.818364        -2.191009
 H         0.370639         0.111182        -0.093554
 H         2.144321        -1.639247        -1.003086
 H         1.974660        -0.647833         2.836576
 H         3.608454        -0.838812         2.411884
 H         3.292079         2.280309         1.951324
