19
Iteration:  2045
 C         4.762997         0.151758        -0.405143
 C         3.300384         0.223353        -0.289460
 C         2.240666         0.812837        -1.267929
 C         1.423250         0.243933        -0.122881
 C         2.328845        -0.946978        -0.116245
 O         2.390485        -1.611138         1.157293
 C         2.511689        -0.485273         2.012957
 C         2.554309         0.660516         0.947426
 O         2.545289         1.944354         1.564548
 H         5.194232         0.130309         0.625904
 H         5.239247        -0.721574        -0.998165
 H         5.077500         1.181640        -0.783275
 H         2.505198         1.794433        -1.427707
 H         1.973465         0.204114        -2.254782
 H         0.390136         0.301107         0.038478
 H         2.254972        -1.559011        -1.071838
 H         1.752111        -0.327422         2.782225
 H         3.544862        -0.535304         2.487788
 H         2.729642         2.623717         0.928427
