19
Iteration:  4511
 C         4.869486         0.165933        -0.437444
 C         3.366032         0.363109        -0.283876
 C         2.270549         1.279983        -1.171143
 C         1.405074         0.379574        -0.157389
 C         2.318776        -0.957823        -0.405505
 O         2.353123        -1.722564         0.928217
 C         2.519328        -0.637469         1.891193
 C         2.451757         0.581606         1.079264
 O         2.551425         1.647151         1.949152
 H         5.316774         0.741698        -1.397790
 H         5.428821         0.641690         0.382488
 H         5.269518        -0.872632        -0.485458
 H         2.456317         2.330199        -1.094397
 H         2.106247         1.116970        -2.244532
 H         0.337071         0.342601        -0.014818
 H         2.208936        -1.745081        -1.249202
 H         1.671211        -0.780926         2.559046
 H         3.454631        -0.773524         2.438373
 H         1.967764         2.443328         1.867639
