19
Iteration:  4713charge 0 multiplicity 1
 C         4.826617         0.148633        -0.414871
 C         3.305780         0.371019        -0.313828
 C         2.285969         1.096781        -1.140466
 C         1.374364         0.460925        -0.001602
 C         2.182276        -0.822132        -0.286029
 O         2.520693        -1.734902         0.739872
 C         2.588087        -0.777441         1.927816
 C         2.534251         0.647127         1.074972
 O         2.518895         1.739592         1.906861
 H         5.185392         0.359733        -1.391729
 H         5.237140         0.977268         0.275589
 H         4.995812        -0.864488         0.046830
 H         2.332084         2.228182        -1.287503
 H         2.138114         0.774908        -2.167390
 H         0.219983         0.548092        -0.147747
 H         2.083789        -1.257840        -1.311915
 H         1.777309        -1.064697         2.540687
 H         3.509478        -1.172179         2.371623
 H         1.829847         2.239654         1.550924
