19
Iteration:  4179charge 0 multiplicity 1
 C         4.801768         0.094630        -0.472191
 C         3.289792         0.360600        -0.173595
 C         2.344018         1.120145        -1.105792
 C         1.366476         0.359246        -0.172909
 C         2.396830        -0.812931        -0.389041
 O         2.438294        -1.696799         0.766465
 C         2.426295        -0.650036         1.920028
 C         2.340625         0.611162         1.144561
 O         2.586316         1.681725         1.950309
 H         5.074380         0.460844        -1.419427
 H         5.204610         0.996224         0.007274
 H         5.182880        -0.942492        -0.271079
 H         2.349530         2.220023        -0.930856
 H         2.538170         0.802118        -2.109627
 H         0.253430         0.469525        -0.087419
 H         2.377328        -1.320984        -1.309966
 H         1.696992        -0.834497         2.756175
 H         3.468532        -0.671861         2.326940
 H         2.968322         2.405092         1.536790
