19
Iteration:  1892charge 0 multiplicity 1
 C         4.784397         0.217200        -0.364785
 C         3.355532         0.198232        -0.315031
 C         2.276086         0.867589        -1.150662
 C         1.439074         0.208570        -0.080070
 C         2.362397        -1.023304        -0.149527
 O         2.264242        -1.631975         1.202162
 C         2.588904        -0.487311         2.000923
 C         2.488426         0.666447         1.017205
 O         2.530109         1.964745         1.356654
 H         5.321636        -0.578339         0.136046
 H         5.171027         0.395120        -1.381828
 H         5.004326         1.147363         0.106868
 H         2.445197         1.898675        -1.182041
 H         2.013282         0.623006        -2.186462
 H         0.449143         0.127191         0.245543
 H         2.159350        -1.866812        -0.921011
 H         1.969922        -0.353692         2.878043
 H         3.648549        -0.624040         2.349815
 H         2.666177         2.482228         0.494621
