19
Iteration:  4246
 C         4.802395         0.259889        -0.346305
 C         3.332447         0.290271        -0.164283
 C         2.318748         1.177520        -1.057677
 C         1.428462         0.365290        -0.126011
 C         2.218644        -0.893236        -0.374200
 O         2.313257        -1.755542         0.799891
 C         2.546480        -0.764109         1.911479
 C         2.427261         0.547460         1.071948
 O         2.650985         1.790428         1.800097
 H         5.070151         0.924544        -1.145098
 H         5.203768         0.827426         0.463130
 H         5.317439        -0.702303        -0.447916
 H         2.200797         2.257814        -0.885087
 H         2.430454         0.919290        -2.092640
 H         0.311425         0.461426        -0.145798
 H         2.099769        -1.367847        -1.319343
 H         1.867910        -1.056663         2.746173
 H         3.597391        -0.699626         2.260147
 H         2.678825         2.415290         0.966098
