19
Iteration:   906
 C         4.887385         0.112029        -0.470982
 C         3.363312         0.157347        -0.223723
 C         2.269832         0.952731        -1.180605
 C         1.426434         0.238453        -0.046580
 C         2.334432        -1.010725        -0.089005
 O         2.363718        -1.581450         1.163463
 C         2.612479        -0.444562         1.954422
 C         2.476456         0.642681         0.958737
 O         2.417899         1.922480         1.457431
 H         5.471268        -0.124352         0.453337
 H         4.817725        -0.698532        -1.121208
 H         5.285973         1.062445        -0.928599
 H         2.188855         1.986177        -1.056334
 H         2.232013         0.526341        -2.293135
 H         0.267944         0.520094        -0.101561
 H         2.188798        -1.977897        -0.694667
 H         1.812142        -0.280631         2.690151
 H         3.551332        -0.599900         2.463069
 H         2.334855         2.699511         0.807948
