19
Iteration:  1324charge 0 multiplicity 1
 C         4.796022         0.145111        -0.320271
 C         3.283827         0.123213        -0.307017
 C         2.237224         0.827819        -1.179853
 C         1.440270         0.232957        -0.143252
 C         2.245036        -1.019591        -0.188314
 O         2.559198        -1.549616         1.099366
 C         2.494589        -0.436094         2.080111
 C         2.430001         0.690687         1.047646
 O         2.609943         1.982048         1.398840
 H         5.233259        -0.441228         0.492338
 H         5.129980        -0.238418        -1.285290
 H         5.151624         1.106029        -0.213660
 H         2.328998         1.818915        -1.295235
 H         2.214096         0.364823        -2.263211
 H         0.264631         0.194518         0.169049
 H         2.197100        -1.951347        -0.916884
 H         1.475554        -0.350817         2.602707
 H         3.211500        -0.553928         2.917394
 H         2.075964         2.713046         0.925086
