19
Iteration:  4451charge 0 multiplicity 1
 C         4.872391         0.307293        -0.274520
 C         3.335078         0.289689        -0.273490
 C         2.243694         1.224017        -0.953944
 C         1.385091         0.404136        -0.036069
 C         2.275099        -0.886417        -0.349617
 O         2.353248        -1.797537         0.815559
 C         2.468531        -0.855339         1.824872
 C         2.438847         0.587665         1.060008
 O         2.734510         1.763453         1.618681
 H         5.282893         0.717673        -1.141626
 H         4.975189         1.060529         0.570410
 H         5.269046        -0.687455         0.028186
 H         2.475583         2.206147        -0.511724
 H         1.954709         1.129874        -1.979547
 H         0.258227         0.465272        -0.064201
 H         2.178444        -1.491401        -1.190252
 H         1.650842        -0.960256         2.565440
 H         3.396752        -0.912839         2.424230
 H         2.039387         2.498464         1.349164
