19
Iteration:  1797charge 0 multiplicity 1
 C         4.796227         0.073625        -0.441449
 C         3.357010         0.113739        -0.337230
 C         2.277694         0.933072        -1.201031
 C         1.401616         0.274171        -0.074685
 C         2.366117        -1.046387        -0.142059
 O         2.490598        -1.567885         1.152095
 C         2.510406        -0.448925         2.016238
 C         2.514682         0.632753         0.972567
 O         2.419938         1.984497         1.534591
 H         5.118488        -0.081254         0.594708
 H         5.294888        -0.757242        -1.061237
 H         5.231308         1.079627        -0.731677
 H         2.534151         2.118424        -1.251518
 H         1.844258         0.654579        -2.127460
 H         0.250159         0.358267        -0.046838
 H         2.000456        -1.790665        -0.946336
 H         1.553283        -0.352649         2.616116
 H         3.361363        -0.407324         2.675018
 H         2.662800         2.472896         0.763594
