19
Iteration:   985charge 0 multiplicity 1
 C         4.821115         0.188043        -0.376935
 C         3.331792         0.182147        -0.285760
 C         2.212155         0.818503        -1.229002
 C         1.410659         0.203087        -0.161354
 C         2.260034        -1.059872        -0.129650
 O         2.453141        -1.581736         1.149706
 C         2.508994        -0.436152         2.056028
 C         2.481839         0.650558         0.948667
 O         2.595133         2.001978         1.491405
 H         5.063848        -0.732225         0.198432
 H         5.355856         0.128482        -1.300346
 H         5.195507         1.043467         0.112889
 H         2.208993         1.916682        -1.186867
 H         1.964050         0.508342        -2.253223
 H         0.342676         0.243555         0.017525
 H         2.214009        -1.893587        -0.828352
 H         1.747929        -0.300279         2.817756
 H         3.517157        -0.567347         2.510256
 H         2.404172         2.719952         0.766502
