19
Iteration:  4336charge 0 multiplicity 1
 C         4.892425         0.177906        -0.488209
 C         3.331606         0.327123        -0.226881
 C         2.347736         1.284903        -0.895265
 C         1.304725         0.313288        -0.109429
 C         2.369625        -0.844350        -0.355448
 O         2.343247        -1.686276         0.796488
 C         2.481934        -0.766573         1.891786
 C         2.430897         0.509165         1.112813
 O         2.544138         1.751937         1.792324
 H         5.046258        -0.457910        -1.416939
 H         5.301248         1.127389        -0.725058
 H         5.521586        -0.207796         0.261887
 H         2.488453         2.238911        -0.425219
 H         2.366712         1.267601        -2.008758
 H         0.217488         0.136659        -0.130162
 H         2.303602        -1.614913        -1.249918
 H         1.584884        -0.980794         2.513239
 H         3.407510        -0.733174         2.514025
 H         2.753121         2.495873         1.072176
