19
Iteration:   978
 C         4.814827         0.141000        -0.354822
 C         3.253418         0.224007        -0.359963
 C         2.244295         0.834672        -1.283560
 C         1.412625         0.216675        -0.105993
 C         2.342514        -1.041121        -0.109826
 O         2.465156        -1.561867         1.175653
 C         2.478796        -0.407331         2.010874
 C         2.482529         0.629868         0.928910
 O         2.604455         1.957145         1.521910
 H         5.145878        -0.676407         0.267928
 H         5.116012         0.080776        -1.446517
 H         5.158280         1.112907         0.075643
 H         2.253214         1.968906        -1.194140
 H         2.074901         0.372850        -2.217248
 H         0.379407         0.084731         0.175141
 H         2.108012        -1.806259        -0.836680
 H         1.628562        -0.446297         2.768205
 H         3.378458        -0.456164         2.706179
 H         2.404013         2.615118         0.808400
