19
Iteration:  3483
 C         4.803484         0.217391        -0.335589
 C         3.309624         0.342348        -0.219615
 C         2.311138         1.101836        -1.042832
 C         1.395516         0.406716        -0.027986
 C         2.192259        -0.827159        -0.365216
 O         2.407967        -1.737713         0.786807
 C         2.562008        -0.727250         1.818508
 C         2.535513         0.558407         1.066810
 O         2.608910         1.787629         1.725793
 H         5.042955        -0.002212        -1.383148
 H         5.145844         1.196683        -0.125198
 H         5.264638        -0.489724         0.447098
 H         2.335310         2.209665        -1.060302
 H         2.276481         0.847303        -2.123322
 H         0.281650         0.379816        -0.085087
 H         1.868983        -1.279722        -1.227116
 H         1.686821        -0.804060         2.459087
 H         3.327980        -1.103723         2.431700
 H         2.293442         1.723778         2.701790
