19
Iteration:  2840
 C         4.824274         0.082155        -0.403420
 C         3.291466         0.235114        -0.357770
 C         2.219921         0.943142        -1.233740
 C         1.382051         0.368892        -0.071481
 C         2.231956        -0.837095        -0.237001
 O         2.580705        -1.574189         0.953401
 C         2.540658        -0.546577         1.959765
 C         2.450721         0.599687         1.030627
 O         2.509597         1.828164         1.696787
 H         5.217637         0.698766         0.413569
 H         4.971524        -1.006209        -0.222681
 H         5.444041         0.457739        -1.299451
 H         2.192526         2.026701        -1.361216
 H         2.008546         0.622571        -2.268363
 H         0.332380         0.478120         0.225737
 H         1.935034        -1.532296        -0.880773
 H         1.699062        -0.566153         2.652375
 H         3.389029        -0.765861         2.590347
 H         3.176633         1.729932         2.469798
