19
Iteration:  3236charge 0 multiplicity 1
 C         4.875147         0.360971        -0.422882
 C         3.281151         0.186104        -0.395631
 C         2.277826         1.136484        -0.972919
 C         1.439523         0.378394         0.031959
 C         2.173012        -0.924650        -0.343846
 O         2.377027        -1.741723         0.880592
 C         2.517758        -0.724709         1.861316
 C         2.622591         0.560980         1.095418
 O         2.593068         1.763998         1.728100
 H         5.023564         1.397908        -0.626240
 H         5.309052        -0.101892         0.457775
 H         5.212664        -0.016207        -1.321193
 H         2.471868         2.236740        -0.773036
 H         1.916067         1.145187        -1.970593
 H         0.367872         0.526703         0.291465
 H         1.903822        -1.685631        -1.078792
 H         1.608283        -0.723601         2.462997
 H         3.417966        -0.760681         2.434285
 H         2.112449         2.274328         1.118120
