19
Iteration:  2284
 C         4.810479         0.206728        -0.410438
 C         3.266901         0.216715        -0.262533
 C         2.329780         0.692034        -1.276976
 C         1.367351         0.206022        -0.098377
 C         2.291465        -0.939801        -0.170024
 O         2.333021        -1.598550         1.108830
 C         2.628627        -0.481031         1.947281
 C         2.435277         0.718492         1.030117
 O         2.579545         1.969649         1.611381
 H         5.287222         0.140350         0.566465
 H         5.285772        -0.500857        -1.085339
 H         5.176228         1.201867        -0.758096
 H         2.305299         1.836606        -1.464931
 H         2.419876         0.098555        -2.142102
 H         0.320212         0.372748         0.064193
 H         2.119360        -1.766214        -0.983691
 H         1.800348        -0.484668         2.704538
 H         3.577999        -0.525021         2.569780
 H         2.645208         2.605710         0.878248
