19
Iteration:   793charge 0 multiplicity 1
 C         4.830549         0.220050        -0.456306
 C         3.349811         0.154181        -0.264510
 C         2.277998         0.895368        -1.182339
 C         1.396696         0.170662        -0.125109
 C         2.282502        -1.044547        -0.096459
 O         2.375942        -1.548446         1.192550
 C         2.522219        -0.549387         2.051389
 C         2.485732         0.649031         1.005639
 O         2.514324         1.987406         1.407323
 H         5.325561        -0.694820        -0.153535
 H         5.122188         0.372571        -1.556287
 H         5.347976         1.011844         0.100245
 H         2.421048         1.977238        -1.163634
 H         2.278320         0.368730        -2.206734
 H         0.277986         0.463834        -0.055563
 H         2.301411        -1.807160        -0.783112
 H         1.814922        -0.425439         2.874917
 H         3.487718        -0.366699         2.474584
 H         2.728161         2.477048         0.663817
