19
Iteration:  2862
 C         4.765924         0.096976        -0.348830
 C         3.295455         0.265716        -0.350164
 C         2.246031         1.065573        -1.096760
 C         1.414579         0.330358        -0.039953
 C         2.325384        -0.972864        -0.271756
 O         2.439000        -1.713579         1.018807
 C         2.636232        -0.575959         1.880713
 C         2.493389         0.613579         0.965681
 O         2.455392         1.931599         1.637242
 H         5.309566         0.988273        -0.040219
 H         4.973300        -0.892782         0.081354
 H         4.959029         0.080467        -1.473640
 H         2.306794         2.164918        -0.989472
 H         2.072083         0.949490        -2.188807
 H         0.329311         0.515607         0.037586
 H         2.080804        -1.581299        -1.050170
 H         1.835516        -0.529555         2.608708
 H         3.524355        -0.678103         2.485862
 H         3.273843         1.958441         2.136056
