19
Iteration:  4372
 C         4.833929         0.176581        -0.505571
 C         3.358743         0.291260        -0.306436
 C         2.391897         1.172763        -1.083360
 C         1.386303         0.438941        -0.064699
 C         2.304509        -0.810384        -0.309463
 O         2.353752        -1.679359         0.814888
 C         2.578513        -0.734457         1.818271
 C         2.538135         0.604945         1.079672
 O         2.390939         1.641409         2.015722
 H         4.923477        -0.533298        -1.298954
 H         5.299555         1.087923        -0.804233
 H         5.323768        -0.228011         0.380677
 H         2.511681         2.229500        -1.165644
 H         2.395203         0.977659        -2.172482
 H         0.325361         0.373492         0.142940
 H         2.168336        -1.496219        -1.181821
 H         1.648230        -0.708428         2.380853
 H         3.435551        -0.910231         2.508277
 H         2.447320         2.477483         1.363707
