19
Iteration:  4238charge 0 multiplicity 1
 C         4.858981         0.256630        -0.353862
 C         3.320540         0.274176        -0.222994
 C         2.332575         1.161294        -0.982101
 C         1.434282         0.381891        -0.033602
 C         2.245415        -0.896083        -0.369273
 O         2.334898        -1.696391         0.795075
 C         2.529288        -0.789611         1.857431
 C         2.435836         0.549420         1.121322
 O         2.568286         1.795745         1.742084
 H         5.072550         0.869715        -1.273651
 H         5.347156         0.683442         0.486978
 H         5.416623        -0.627520        -0.498549
 H         2.492300         2.225498        -0.881563
 H         2.246044         0.959386        -2.097885
 H         0.349945         0.445429        -0.155253
 H         1.773710        -1.545575        -1.252597
 H         1.759455        -0.927502         2.634536
 H         3.509836        -1.033274         2.284524
 H         2.796646         2.447022         0.935347
