19
Iteration:  3406charge 0 multiplicity 1
 C         4.847683         0.317629        -0.411402
 C         3.333505         0.263998        -0.330843
 C         2.270573         1.085559        -1.155806
 C         1.436118         0.532805        -0.036896
 C         2.246405        -0.862335        -0.328823
 O         2.373209        -1.766738         0.809865
 C         2.522207        -0.745043         1.813406
 C         2.507420         0.562779         1.071412
 O         2.520342         1.743950         1.961755
 H         5.222288        -0.513589        -1.018274
 H         5.150626         1.164082        -0.942171
 H         5.167407         0.231102         0.666469
 H         2.448166         2.166761        -1.200305
 H         1.865737         0.551769        -2.043215
 H         0.337344         0.436487         0.184421
 H         2.033015        -1.270000        -1.296265
 H         1.728032        -0.992763         2.503950
 H         3.477397        -0.954716         2.304740
 H         3.403823         2.022475         2.018131
