19
Iteration:  2910
 C         4.809962         0.247566        -0.496734
 C         3.328033         0.235956        -0.231444
 C         2.292750         1.044515        -1.074060
 C         1.459020         0.344707        -0.044235
 C         2.261416        -0.965008        -0.189509
 O         2.350865        -1.753179         0.957352
 C         2.500958        -0.647217         1.932456
 C         2.532583         0.617616         1.023248
 O         2.499343         1.879672         1.585040
 H         5.073960         1.152883        -1.108949
 H         5.123389         0.313386         0.572738
 H         5.283306        -0.625374        -0.954575
 H         2.372285         2.169128        -0.895510
 H         2.129696         0.991941        -2.131388
 H         0.385658         0.357394         0.191309
 H         2.251128        -1.494196        -1.213417
 H         1.770402        -0.654908         2.763429
 H         3.510529        -0.750445         2.472079
 H         3.373506         2.316020         1.561369
