19
Iteration:  2429
 C         4.808830         0.255453        -0.372309
 C         3.269464         0.202028        -0.214809
 C         2.259581         0.895512        -1.190909
 C         1.354545         0.255391        -0.124316
 C         2.268181        -0.962682        -0.127027
 O         2.422748        -1.655316         1.058206
 C         2.494274        -0.529201         2.020669
 C         2.470489         0.636889         0.996543
 O         2.662350         1.928856         1.467475
 H         5.253468         1.192229        -0.694594
 H         5.267885        -0.100393         0.596810
 H         5.247222        -0.530924        -0.972568
 H         2.274535         1.977294        -1.404991
 H         2.301341         0.390759        -2.027077
 H         0.323786         0.192985         0.090895
 H         2.289698        -1.572708        -1.118473
 H         1.640452        -0.611250         2.722140
 H         3.435892        -0.640021         2.653832
 H         2.601599         2.630217         0.864607
