19
Iteration:  4478
 C         4.799150         0.290994        -0.305906
 C         3.301227         0.290186        -0.176293
 C         2.347791         1.101383        -1.160409
 C         1.364357         0.371018        -0.029680
 C         2.224443        -0.862083        -0.401182
 O         2.317803        -1.702582         0.779046
 C         2.566770        -0.763258         1.829428
 C         2.506697         0.611602         1.097487
 O         2.678019         1.733729         1.824129
 H         5.091254         1.052509        -1.213889
 H         5.079298         0.920974         0.558341
 H         5.266912        -0.709125        -0.345108
 H         2.663822         2.136322        -1.150640
 H         2.277820         0.610660        -2.181371
 H         0.290157         0.240778         0.048394
 H         2.131808        -1.552222        -1.352335
 H         1.723069        -0.682091         2.570067
 H         3.467312        -1.064043         2.381752
 H         1.856216         2.408619         1.766772
