19
Iteration:  3309charge 0 multiplicity 1
 C         4.825421         0.257557        -0.379236
 C         3.268981         0.311458        -0.322400
 C         2.181793         1.158192        -1.072740
 C         1.374746         0.410473        -0.018936
 C         2.253289        -0.887465        -0.353316
 O         2.486701        -1.699237         0.839288
 C         2.537720        -0.716280         1.895761
 C         2.478827         0.572177         0.980936
 O         2.634210         1.688444         1.858342
 H         5.121406         0.549111        -1.447303
 H         5.231135         0.889939         0.457129
 H         5.092954        -0.892636        -0.249509
 H         2.307431         2.267995        -0.926211
 H         1.939361         0.890118        -2.136235
 H         0.193698         0.423041         0.057373
 H         2.065386        -1.660706        -1.074349
 H         1.593771        -0.779077         2.494770
 H         3.542205        -0.889491         2.438123
 H         3.034722         2.440126         1.439038
