19
Iteration:  3700charge 0 multiplicity 1
 C         4.778028         0.203713        -0.470105
 C         3.269141         0.273335        -0.334713
 C         2.389863         1.229538        -1.048676
 C         1.403788         0.394318        -0.144392
 C         2.270641        -0.908195        -0.300898
 O         2.485944        -1.724695         0.816488
 C         2.415027        -0.681391         1.902536
 C         2.477913         0.601387         1.049902
 O         2.561210         1.660573         1.917514
 H         5.010252        -0.679728        -1.034128
 H         5.167376         1.173233        -0.710835
 H         5.080983         0.092275         0.599789
 H         2.502653         2.163265        -0.628756
 H         2.230035         1.171596        -2.161050
 H         0.264071         0.459272        -0.097858
 H         2.092826        -1.311721        -1.233640
 H         1.503514        -0.646643         2.562457
 H         3.369487        -0.780003         2.461351
 H         3.075176         2.364836         1.628719
