19
Iteration:  2854charge 0 multiplicity 1
 C         4.759180         0.085231        -0.382349
 C         3.274124         0.249937        -0.367843
 C         2.233679         1.103702        -1.205733
 C         1.390585         0.356232        -0.031251
 C         2.253054        -1.001569        -0.242576
 O         2.494045        -1.651550         0.998112
 C         2.588687        -0.574019         1.931465
 C         2.574333         0.653215         0.985985
 O         2.461500         1.857872         1.668916
 H         5.200109         0.855446         0.313714
 H         5.087904        -0.905241         0.085548
 H         5.241579         0.153378        -1.415819
 H         2.393092         2.268012        -1.129571
 H         2.079339         0.622234        -2.163030
 H         0.256270         0.334186         0.151098
 H         2.233559        -1.624974        -1.185930
 H         1.690265        -0.588433         2.596242
 H         3.589219        -0.497141         2.511395
 H         3.154093         1.955614         2.279842
