19
Iteration:  4420
 C         4.748067         0.223794        -0.330298
 C         3.303520         0.380584        -0.270745
 C         2.276753         1.167134        -0.977118
 C         1.441937         0.325033        -0.121564
 C         2.272655        -0.873214        -0.372713
 O         2.395998        -1.695947         0.799617
 C         2.476489        -0.734942         1.851170
 C         2.515126         0.581813         1.025070
 O         2.688719         1.677435         1.798035
 H         5.200390        -0.036065        -1.336698
 H         5.196183         1.202864         0.153158
 H         5.019381        -0.518943         0.480783
 H         2.272999         2.264873        -0.715134
 H         2.098571         1.221753        -2.037359
 H         0.312481         0.390693        -0.148757
 H         2.198135        -1.524654        -1.225218
 H         1.587444        -0.722218         2.508822
 H         3.394258        -0.810587         2.448592
 H         2.061065         2.321122         1.633020
