19
Iteration:  1328charge 0 multiplicity 1
 C         4.791775         0.163059        -0.345537
 C         3.296929         0.114267        -0.278834
 C         2.269168         0.857809        -1.183610
 C         1.380965         0.236329        -0.136732
 C         2.272234        -1.054039        -0.150799
 O         2.550237        -1.558374         1.116892
 C         2.462259        -0.445371         2.083201
 C         2.448844         0.684908         0.993733
 O         2.614543         1.975904         1.376131
 H         5.116868        -0.407006         0.551279
 H         5.293063        -0.315696        -1.271106
 H         5.237685         1.270812        -0.332849
 H         2.250450         2.074902        -1.181680
 H         2.212702         0.396775        -2.141934
 H         0.246313         0.135848         0.259096
 H         2.170032        -1.748665        -0.878762
 H         1.498321        -0.359304         2.553438
 H         3.245833        -0.680000         2.819662
 H         2.137807         2.615552         0.928341
