19
Iteration:  4860charge 0 multiplicity 1
 C         4.862976         0.228812        -0.409862
 C         3.279531         0.324975        -0.234231
 C         2.294339         1.186825        -1.062865
 C         1.343661         0.352414        -0.108479
 C         2.202837        -0.829084        -0.326927
 O         2.390389        -1.779531         0.863936
 C         2.691200        -0.749568         1.850212
 C         2.466001         0.577689         1.093037
 O         2.555989         1.754645         1.815826
 H         5.068149         0.708890        -1.394636
 H         5.402177         0.735847         0.339316
 H         5.124960        -0.815308        -0.493622
 H         2.302321         2.216210        -0.757989
 H         2.312495         0.969494        -2.165328
 H         0.295539         0.301389        -0.216556
 H         2.158182        -1.371819        -1.264795
 H         1.935179        -0.761569         2.651141
 H         3.687508        -0.896233         2.275450
 H         1.987217         2.542642         1.519632
