19
Iteration:  3560
 C         4.831619         0.211705        -0.426696
 C         3.355699         0.275540        -0.256807
 C         2.332080         1.249243        -0.976221
 C         1.446605         0.365306        -0.002751
 C         2.283510        -0.873254        -0.315911
 O         2.376878        -1.800455         0.776398
 C         2.462920        -0.751420         1.940316
 C         2.425480         0.515793         1.105939
 O         2.534688         1.882184         1.704261
 H         5.134912         0.747188        -1.345476
 H         5.253522         0.412059         0.503521
 H         5.340507        -0.820933        -0.664538
 H         2.355334         2.385810        -0.750665
 H         2.159780         0.905440        -2.050228
 H         0.349013         0.569717         0.042533
 H         2.268856        -1.298043        -1.266780
 H         1.507933        -1.014305         2.407809
 H         3.322275        -0.993029         2.557582
 H         3.165526         2.224771         1.037879
