19
Iteration:  1174charge 0 multiplicity 1
 C         4.781485         0.214154        -0.365299
 C         3.283104         0.189531        -0.330235
 C         2.232594         0.769412        -1.260103
 C         1.427746         0.262187        -0.107077
 C         2.256825        -1.041285        -0.140552
 O         2.439676        -1.574008         1.147500
 C         2.564230        -0.427899         2.020357
 C         2.462799         0.672077         0.952531
 O         2.595426         1.943965         1.551885
 H         5.055049        -0.078282         0.688543
 H         5.234476        -0.578386        -1.042117
 H         5.138244         1.256225        -0.576336
 H         2.423047         1.918619        -1.517817
 H         2.242922         0.068608        -2.067575
 H         0.378613         0.183948        -0.070749
 H         2.190608        -1.838955        -0.949163
 H         1.752648        -0.540159         2.775477
 H         3.577279        -0.229996         2.487426
 H         2.442567         2.608983         0.825970
