19
Iteration:  3306charge 0 multiplicity 1
 C         4.824019         0.257261        -0.383001
 C         3.264991         0.318154        -0.318552
 C         2.178355         1.160612        -1.092772
 C         1.350749         0.376358        -0.033925
 C         2.255777        -0.883388        -0.352919
 O         2.484322        -1.700585         0.862174
 C         2.533703        -0.690582         1.878999
 C         2.487858         0.568925         1.000187
 O         2.645347         1.685801         1.884568
 H         5.101374         0.539433        -1.390418
 H         5.193572         0.795250         0.458242
 H         5.134823        -0.815410        -0.301236
 H         2.279730         2.225521        -0.976915
 H         1.974949         0.930293        -2.191831
 H         0.278153         0.440583        -0.063126
 H         2.061018        -1.605382        -1.207570
 H         1.650844        -0.781274         2.543907
 H         3.499942        -0.861696         2.309055
 H         3.110427         2.419803         1.475065
