19
Iteration:  3530
 C         4.864164         0.226244        -0.418135
 C         3.342507         0.286066        -0.285196
 C         2.332095         1.233057        -1.059736
 C         1.408644         0.315248        -0.114155
 C         2.224301        -0.898081        -0.328514
 O         2.337613        -1.660025         0.871395
 C         2.527889        -0.612774         1.902015
 C         2.491547         0.507742         0.986195
 O         2.493966         1.682806         1.824735
 H         5.119261         0.719991        -1.383998
 H         5.354605         0.680150         0.469493
 H         5.091660        -0.813576        -0.400120
 H         2.343413         2.334478        -0.878641
 H         2.307896         1.136161        -2.108757
 H         0.369989         0.553901         0.084904
 H         2.299733        -1.607733        -1.205064
 H         1.753635        -0.765412         2.623669
 H         3.439345        -0.814267         2.463146
 H         3.413455         1.861039         1.979159
