19
Iteration:  3854
 C         4.794766         0.213090        -0.467549
 C         3.296623         0.282901        -0.283922
 C         2.399444         1.184864        -1.059421
 C         1.346705         0.461824        -0.155344
 C         2.277574        -0.912556        -0.341550
 O         2.427580        -1.720382         0.853467
 C         2.522666        -0.714224         1.863962
 C         2.436769         0.558662         1.089691
 O         2.515360         1.687482         1.951006
 H         4.982521        -0.199279        -1.507819
 H         5.268541         1.209376        -0.531348
 H         5.084226        -0.509718         0.369907
 H         2.695472         2.243533        -0.934952
 H         2.447146         0.881403        -2.238212
 H         0.300558         0.887280        -0.253599
 H         2.392843        -1.575864        -1.223832
 H         1.704359        -0.809369         2.652261
 H         3.441152        -0.740479         2.521590
 H         2.797916         2.578417         1.506240
