19
Iteration:  4099
 C         4.758280         0.299189        -0.300210
 C         3.259622         0.303014        -0.139391
 C         2.402927         1.232036        -1.001695
 C         1.411459         0.387737        -0.155458
 C         2.229849        -0.875055        -0.409048
 O         2.301100        -1.777088         0.734352
 C         2.561671        -0.818095         1.889304
 C         2.419823         0.531643         1.141158
 O         2.720896         1.761035         1.770037
 H         4.991985        -0.496859        -1.019099
 H         4.988145         1.313997        -0.735865
 H         5.419175         0.285577         0.570236
 H         2.377111         2.342374        -1.018771
 H         2.405755         0.908014        -2.045132
 H         0.374260         0.148567        -0.239133
 H         2.152657        -1.417029        -1.367406
 H         1.787881        -0.912614         2.653366
 H         3.572830        -0.718812         2.360331
 H         2.158440         2.412572         1.451317
