19
Iteration:  4823
 C         4.770921         0.396839        -0.420112
 C         3.323805         0.341458        -0.324975
 C         2.209965         1.103898        -1.172166
 C         1.364246         0.375864        -0.101560
 C         2.311529        -0.886967        -0.285688
 O         2.410256        -1.795397         0.891661
 C         2.445977        -0.710200         1.898204
 C         2.532094         0.617328         0.995641
 O         2.675769         1.650027         1.929921
 H         5.262304         1.007032        -1.202831
 H         5.314832         0.615478         0.556729
 H         5.203818        -0.600883        -0.618940
 H         2.192958         2.213266        -1.124482
 H         2.081518         0.869746        -2.217818
 H         0.264521         0.203153         0.098963
 H         2.128837        -1.441496        -1.222484
 H         1.536595        -0.643258         2.472479
 H         3.279358        -0.823074         2.608198
 H         2.961135         2.400444         1.412378
