19
Iteration:  3228
 C         4.788948         0.303542        -0.464783
 C         3.330110         0.181118        -0.348542
 C         2.244535         1.213891        -0.955108
 C         1.458082         0.397553         0.000162
 C         2.194965        -0.901386        -0.325846
 O         2.427283        -1.755681         0.887826
 C         2.517681        -0.696653         1.889069
 C         2.579947         0.482275         1.067438
 O         2.606169         1.805496         1.693753
 H         4.990358         1.387662        -0.245364
 H         5.244654        -0.299043         0.322445
 H         5.273318         0.006721        -1.407887
 H         2.394140         2.224614        -0.643610
 H         1.952504         1.137611        -2.056906
 H         0.484292         0.401250         0.203620
 H         2.026213        -1.643866        -1.164070
 H         1.604826        -0.734466         2.475409
 H         3.249598        -0.953814         2.649049
 H         1.984799         2.248410         1.185524
