19
Iteration:   454
 C         4.801963         0.211243        -0.367994
 C         3.273179         0.207676        -0.275357
 C         2.328001         0.866909        -1.214948
 C         1.392713         0.236269        -0.107076
 C         2.282182        -1.033694        -0.161406
 O         2.472890        -1.545500         1.181923
 C         2.401964        -0.513447         2.137861
 C         2.537873         0.601166         0.942362
 O         2.624578         1.950492         1.353531
 H         5.207520        -0.172439         0.588984
 H         5.052550        -0.581278        -1.148705
 H         5.255048         1.110450        -0.610781
 H         2.152511         1.929240        -1.180409
 H         2.282712         0.695180        -2.315963
 H         0.270743         0.219181         0.163802
 H         2.304972        -1.877436        -0.868989
 H         1.371946        -0.416631         2.565839
 H         3.136077        -0.592928         2.947292
 H         2.303072         2.640596         0.824307
