19
Iteration:   871charge 0 multiplicity 1
 C         4.763672         0.150305        -0.375659
 C         3.267123         0.133125        -0.283725
 C         2.290711         0.835969        -1.212599
 C         1.419824         0.315477        -0.102475
 C         2.367169        -1.079107        -0.114101
 O         2.418296        -1.591690         1.142283
 C         2.632253        -0.470605         1.986363
 C         2.401296         0.708310         0.957045
 O         2.543361         1.977256         1.512863
 H         5.183948        -0.235847         0.551508
 H         5.152413        -0.548979        -1.126898
 H         5.236225         1.150971        -0.572448
 H         2.234863         1.896177        -1.279288
 H         1.979614         0.499786        -2.269695
 H         0.233230         0.362773        -0.090815
 H         2.271724        -1.791438        -0.920543
 H         1.888171        -0.274049         2.753948
 H         3.615668        -0.615304         2.374767
 H         2.217456         2.611399         0.819769
