19
Iteration:  2533charge 0 multiplicity 1
 C         4.830655         0.116893        -0.364781
 C         3.312383         0.269856        -0.254259
 C         2.296061         0.938903        -1.240095
 C         1.415224         0.310003        -0.083632
 C         2.255165        -0.986899        -0.185709
 O         2.360818        -1.634434         1.051379
 C         2.622098        -0.491115         1.964346
 C         2.507583         0.632768         1.038841
 O         2.509086         1.883977         1.566738
 H         5.340552         0.631328        -1.211973
 H         5.267665         0.702175         0.429498
 H         5.226342        -0.927243        -0.416372
 H         2.337276         1.969704        -1.247562
 H         1.988645         0.355847        -2.162998
 H         0.330420         0.446697         0.159895
 H         2.265686        -1.606000        -0.996368
 H         1.940116        -0.578154         2.816422
 H         3.676753        -0.583125         2.194157
 H         1.938969         2.456727         1.026688
