19
Iteration:  2856charge 0 multiplicity 1
 C         4.760448         0.083195        -0.373664
 C         3.280155         0.256350        -0.370090
 C         2.236010         1.103400        -1.180954
 C         1.392441         0.351697        -0.028199
 C         2.270617        -1.003427        -0.242906
 O         2.480059        -1.665243         1.006138
 C         2.601153        -0.578684         1.917315
 C         2.564601         0.645767         0.978756
 O         2.456653         1.876153         1.663041
 H         5.222964         0.910981         0.238212
 H         5.049731        -0.896651         0.076159
 H         5.139945         0.146334        -1.390615
 H         2.384927         2.229994        -1.102238
 H         2.079645         0.680224        -2.189293
 H         0.281912         0.373817         0.108224
 H         2.199676        -1.642873        -1.256181
 H         1.704695        -0.574985         2.600082
 H         3.583858        -0.504024         2.519647
 H         3.198301         1.949411         2.255666
