19
Iteration:   222
 C         4.909379         0.067242        -0.454354
 C         3.324285         0.199587        -0.258375
 C         2.275887         0.876614        -1.168193
 C         1.274415         0.241793        -0.144646
 C         2.321624        -0.981700        -0.079435
 O         2.550140        -1.548666         1.201611
 C         2.450127        -0.448449         2.071822
 C         2.417749         0.630849         0.967758
 O         2.512004         1.998284         1.339704
 H         5.431111        -0.488444         0.428733
 H         5.064371        -0.534996        -1.325625
 H         5.445338         0.909548        -0.591756
 H         2.202531         1.882838        -1.015569
 H         2.027207         0.569338        -2.233336
 H         0.159964         0.191257         0.028866
 H         2.068674        -1.747548        -0.940946
 H         1.458626        -0.387726         2.474790
 H         3.108456        -0.396820         2.897151
 H         3.460771         2.131172         1.374844
