19
Iteration:  2989
 C         4.833251         0.171524        -0.375029
 C         3.326504         0.184704        -0.372642
 C         2.301452         1.185785        -1.020350
 C         1.330789         0.315029        -0.015947
 C         2.268404        -0.913109        -0.283522
 O         2.434261        -1.664120         0.935436
 C         2.579938        -0.677535         1.976515
 C         2.487662         0.556988         1.017686
 O         2.549336         1.904738         1.520906
 H         5.197468        -0.237588        -1.320976
 H         5.101547         1.199989        -0.462413
 H         5.168430        -0.306755         0.513671
 H         2.264346         2.162695        -0.818914
 H         2.147340         0.945374        -2.063143
 H         0.314912         0.263156         0.254953
 H         1.919474        -1.632375        -1.091947
 H         1.730524        -0.691529         2.600349
 H         3.542353        -0.917988         2.474881
 H         2.446018         1.831705         2.453202
