19
Iteration:   520charge 0 multiplicity 1
 C         4.847907         0.121816        -0.378040
 C         3.366176         0.169007        -0.252927
 C         2.311670         0.743480        -1.294223
 C         1.364606         0.252213        -0.131883
 C         2.322286        -0.950264        -0.122521
 O         2.341722        -1.556533         1.184224
 C         2.645854        -0.420418         1.994980
 C         2.426261         0.706364         0.888865
 O         2.430842         1.935553         1.588970
 H         5.358313        -0.677164         0.144436
 H         5.100814        -0.030055        -1.460936
 H         5.285856         1.060690        -0.125091
 H         2.430243         1.812641        -1.479748
 H         2.280299         0.265583        -2.371452
 H         0.232145         0.220315         0.102002
 H         2.269059        -1.741044        -0.861219
 H         1.970491        -0.243935         2.864213
 H         3.685741        -0.545586         2.354579
 H         2.701302         2.695695         0.994255
