19
Iteration:  4503
 C         4.899915         0.233954        -0.411797
 C         3.355193         0.317900        -0.285977
 C         2.241917         1.218169        -1.181204
 C         1.443878         0.427966        -0.154075
 C         2.329054        -0.996264        -0.387777
 O         2.329065        -1.717881         0.860306
 C         2.504518        -0.618479         1.930046
 C         2.413708         0.588987         1.041309
 O         2.603085         1.632612         1.969266
 H         5.359660         0.750201        -1.241509
 H         5.378593         0.700989         0.419150
 H         5.022764        -0.849063        -0.474348
 H         2.215331         2.346860        -1.086246
 H         2.241805         0.933421        -2.291139
 H         0.380353         0.491244        -0.080748
 H         2.096257        -1.697888        -1.143380
 H         1.828436        -0.623735         2.822344
 H         3.572745        -0.775900         2.253849
 H         1.835966         2.356572         1.919962
