19
Iteration:  3455charge 0 multiplicity 1
 C         4.813212         0.197985        -0.342672
 C         3.301401         0.324847        -0.310040
 C         2.243062         1.320078        -0.925270
 C         1.363914         0.350143        -0.104073
 C         2.368932        -0.992914        -0.415946
 O         2.376553        -1.724209         0.826864
 C         2.493474        -0.663076         1.921475
 C         2.413609         0.502428         1.043447
 O         2.737362         1.728253         1.713861
 H         5.195447        -0.312381        -1.233471
 H         5.039850         1.290652        -0.682433
 H         5.166397        -0.047910         0.608346
 H         2.280790         2.298770        -0.377124
 H         2.144507         1.479431        -1.986660
 H         0.289518         0.367219         0.019763
 H         2.231299        -1.672629        -1.357947
 H         1.653230        -0.923768         2.613630
 H         3.372454        -1.080031         2.479168
 H         1.944178         2.397410         1.829441
