19
Iteration:  1351charge 0 multiplicity 1
 C         4.805672         0.207715        -0.337112
 C         3.322049         0.198434        -0.314490
 C         2.207183         0.885543        -1.197864
 C         1.477585         0.228120        -0.113603
 C         2.350897        -1.063849        -0.169512
 O         2.404696        -1.699906         1.238423
 C         2.486057        -0.427103         1.994909
 C         2.410624         0.668568         1.004015
 O         2.619332         1.956106         1.405406
 H         5.391785        -0.126653         0.552799
 H         5.043672        -0.436119        -1.247595
 H         5.185266         1.250429        -0.827312
 H         2.419345         2.073027        -0.997753
 H         2.085553         0.575496        -2.175458
 H         0.321702         0.300052        -0.030463
 H         2.343434        -1.819353        -0.889897
 H         1.582824        -0.307757         2.553205
 H         3.381826        -0.249847         2.630568
 H         2.244755         2.610992         0.714868
