19
Iteration:  1506
 C         4.796282         0.181299        -0.416381
 C         3.331282         0.158145        -0.306671
 C         2.283693         0.814708        -1.373887
 C         1.444128         0.223340        -0.156174
 C         2.327432        -1.045224        -0.092928
 O         2.350202        -1.611698         1.211545
 C         2.577556        -0.390506         2.011934
 C         2.418669         0.672781         0.975713
 O         2.538103         1.959263         1.582289
 H         5.217079        -0.638792         0.220013
 H         5.356947         0.145928        -1.345241
 H         5.173805         1.044849         0.263169
 H         2.017829         1.892607        -1.513258
 H         2.194041         0.385129        -2.280301
 H         0.286556         0.260583        -0.032393
 H         2.287642        -1.829935        -0.943322
 H         1.992526        -0.149615         2.867128
 H         3.664915        -0.389073         2.357572
 H         2.545466         2.685986         0.986524
