19
Iteration:  4098
 C         4.756052         0.300015        -0.300254
 C         3.264342         0.304863        -0.135487
 C         2.393835         1.221666        -1.004857
 C         1.415170         0.392505        -0.157160
 C         2.225499        -0.876459        -0.412221
 O         2.306735        -1.770179         0.736305
 C         2.559330        -0.819990         1.888051
 C         2.418221         0.540828         1.142137
 O         2.721588         1.754700         1.775859
 H         5.000715        -0.509185        -1.028559
 H         4.991016         1.296387        -0.732801
 H         5.405629         0.290761         0.550786
 H         2.434359         2.301793        -1.013727
 H         2.403354         0.921599        -2.061576
 H         0.389015         0.166437        -0.221538
 H         2.160213        -1.435510        -1.390455
 H         1.799638        -0.940510         2.646202
 H         3.543988        -0.705098         2.346632
 H         2.133164         2.434752         1.444499
