19
Iteration:  3403
 C         4.834699         0.298462        -0.415233
 C         3.353073         0.274651        -0.344461
 C         2.280540         1.077620        -1.155783
 C         1.416861         0.528421        -0.040027
 C         2.228385        -0.873179        -0.317495
 O         2.377252        -1.755167         0.810190
 C         2.520588        -0.743391         1.818445
 C         2.519694         0.582362         1.067154
 O         2.509862         1.736850         1.965987
 H         5.279429        -0.537565        -0.970892
 H         5.143442         1.295503        -0.925101
 H         5.193228         0.251157         0.608416
 H         2.425821         2.136144        -1.142727
 H         1.881152         0.583771        -2.108515
 H         0.380344         0.419372         0.202556
 H         2.070335        -1.330023        -1.376839
 H         1.681072        -0.942484         2.542099
 H         3.520956        -0.960255         2.200018
 H         3.480221         1.979473         2.176772
