19
Iteration:   103
 C         4.799742         0.098948        -0.375600
 C         3.319212         0.072735        -0.282625
 C         2.231775         0.834868        -1.106652
 C         1.331413         0.226904        -0.039381
 C         2.342146        -0.958443        -0.157827
 O         2.530854        -1.543797         1.143637
 C         2.446136        -0.383895         1.999355
 C         2.449310         0.666099         0.932490
 O         2.572854         2.000762         1.289082
 H         5.417643        -0.569133         0.422950
 H         5.404262        -0.151983        -1.254160
 H         5.015755         1.132909        -0.122179
 H         2.129462         1.880040        -1.251549
 H         1.977983         0.294417        -2.136932
 H         0.249601         0.290716         0.171264
 H         2.211927        -1.802484        -0.873632
 H         1.528119        -0.371725         2.654611
 H         3.343491        -0.447087         2.683741
 H         3.129314         2.098540         2.107563
