19
Iteration:  4339
 C         4.885790         0.180935        -0.506249
 C         3.359553         0.312450        -0.250953
 C         2.334675         1.289880        -0.872771
 C         1.333785         0.328484        -0.137063
 C         2.376429        -0.848541        -0.349497
 O         2.332627        -1.684013         0.824208
 C         2.489532        -0.760195         1.862437
 C         2.422064         0.519665         1.117633
 O         2.527498         1.739763         1.808466
 H         5.099525        -0.450404        -1.344088
 H         5.388311         1.059812        -0.821553
 H         5.505215        -0.259610         0.267404
 H         2.315472         2.278450        -0.422296
 H         2.343931         1.293686        -1.973526
 H         0.273154         0.147782        -0.169207
 H         2.245734        -1.622673        -1.168829
 H         1.632113        -0.935162         2.501672
 H         3.380919        -0.686122         2.500690
 H         2.728221         2.350606         1.123197
