19
Iteration:  2597charge 0 multiplicity 1
 C         4.720838         0.222135        -0.391962
 C         3.281855         0.250132        -0.254849
 C         2.252097         0.900321        -1.238710
 C         1.402248         0.259882        -0.061040
 C         2.329280        -0.993144        -0.201523
 O         2.451099        -1.657808         0.991634
 C         2.439469        -0.543552         1.973346
 C         2.476025         0.662692         1.035267
 O         2.647165         1.930956         1.647210
 H         5.055761        -0.149792        -1.427011
 H         5.178193         1.240994        -0.184998
 H         5.171372        -0.366847         0.485676
 H         2.433737         2.007817        -1.506610
 H         2.056477         0.291136        -2.159081
 H         0.256849         0.287742         0.109577
 H         2.361758        -1.595783        -1.033542
 H         1.512992        -0.523021         2.573993
 H         3.433486        -0.652152         2.504123
 H         3.246934         2.333811         1.069237
