19
Iteration:  4482charge 0 multiplicity 1
 C         4.806823         0.279014        -0.325685
 C         3.328340         0.305405        -0.239126
 C         2.344725         1.058988        -1.142663
 C         1.353308         0.368528        -0.071986
 C         2.242719        -0.827015        -0.360990
 O         2.305078        -1.694155         0.827661
 C         2.564036        -0.729554         1.787976
 C         2.500269         0.605762         1.077972
 O         2.653164         1.706496         1.870252
 H         5.121600         0.924916        -1.071470
 H         5.157535         0.887998         0.484588
 H         5.328039        -0.669587        -0.394890
 H         2.644026         2.142749        -1.190668
 H         2.161458         0.726860        -2.207210
 H         0.271142         0.296286        -0.003580
 H         2.211130        -1.402496        -1.226926
 H         1.706675        -0.846090         2.487501
 H         3.515014        -0.949076         2.346448
 H         1.972653         2.295664         1.879005
