19
Iteration:  1990
 C         4.729363         0.067617        -0.461876
 C         3.298190         0.254357        -0.262455
 C         2.351615         0.925670        -1.199919
 C         1.434693         0.201056        -0.071184
 C         2.398211        -1.054871        -0.130595
 O         2.420642        -1.594131         1.152568
 C         2.515633        -0.419793         2.031290
 C         2.464037         0.628782         1.010844
 O         2.484276         1.978597         1.488738
 H         5.277553        -0.608366         0.261741
 H         4.774510        -0.440814        -1.524195
 H         5.321293         1.066733        -0.572399
 H         2.552155         1.973721        -1.202830
 H         2.366270         0.581753        -2.346264
 H         0.402367         0.435672        -0.002439
 H         2.281812        -1.755812        -1.041720
 H         1.812323        -0.346639         2.865579
 H         3.562252        -0.440013         2.497756
 H         1.971228         2.495395         0.794829
