19
Iteration:  1232
 C         4.806632         0.137081        -0.450821
 C         3.336276         0.196140        -0.242846
 C         2.254791         0.888969        -1.196039
 C         1.408575         0.215518        -0.088560
 C         2.296512        -1.010063        -0.095797
 O         2.454174        -1.619484         1.193951
 C         2.494239        -0.447816         2.051865
 C         2.486914         0.655782         0.954568
 O         2.518764         1.975341         1.394924
 H         5.284277        -0.704377         0.003177
 H         5.054935         0.196195        -1.495623
 H         5.268333         1.047260         0.038829
 H         2.408321         1.994309        -1.300870
 H         2.434687         0.526002        -2.167985
 H         0.352526         0.199996         0.002704
 H         2.267642        -1.798565        -0.778879
 H         1.555441        -0.608262         2.616374
 H         3.313911        -0.395279         2.819026
 H         2.586575         2.567682         0.631748
