19
Iteration:  2662charge 0 multiplicity 1
 C         4.877705         0.127380        -0.502288
 C         3.290135         0.206996        -0.235173
 C         2.317717         1.059603        -1.067902
 C         1.398979         0.238125        -0.078923
 C         2.281443        -0.968598        -0.181297
 O         2.368250        -1.701301         1.014237
 C         2.604669        -0.619798         1.994614
 C         2.479173         0.613923         1.080937
 O         2.418675         2.051279         1.460211
 H         4.999631        -0.898886        -0.930519
 H         5.143923         0.905273        -1.249357
 H         5.451879         0.456094         0.392664
 H         2.294439         2.218495        -0.965674
 H         2.155361         0.827440        -2.132187
 H         0.265842         0.224279        -0.134178
 H         2.340035        -1.679444        -0.965602
 H         1.916185        -0.619564         2.875253
 H         3.723120        -0.796851         2.318905
 H         3.212218         2.219066         2.050880
