19
Iteration:  2732
 C         4.799828         0.182269        -0.345651
 C         3.312661         0.248628        -0.316812
 C         2.242932         0.900710        -1.198987
 C         1.321517         0.347523        -0.069802
 C         2.330065        -0.921560        -0.210457
 O         2.417671        -1.661871         1.017345
 C         2.566626        -0.542481         1.938879
 C         2.387716         0.697637         1.005556
 O         2.600808         1.858234         1.633035
 H         5.172254        -0.783518         0.014577
 H         5.029843         0.189206        -1.450310
 H         5.255176         1.191374        -0.049022
 H         2.136576         1.997066        -1.282705
 H         2.050257         0.455615        -2.247893
 H         0.252204         0.201743        -0.077814
 H         2.395072        -1.560064        -1.096658
 H         1.828445        -0.775467         2.740086
 H         3.660291        -0.580959         2.394731
 H         3.484493         1.919586         1.992086
