19
Iteration:  3997charge 0 multiplicity 1
 C         4.824882         0.249440        -0.418911
 C         3.330614         0.280759        -0.250579
 C         2.332450         1.286488        -0.923576
 C         1.398084         0.366101        -0.108651
 C         2.268536        -0.892622        -0.360146
 O         2.344127        -1.754025         0.829005
 C         2.551008        -0.763279         1.894538
 C         2.530791         0.533484         1.087123
 O         2.494452         1.726284         1.746040
 H         5.300088         0.473661        -1.417212
 H         5.267154         0.928092         0.287588
 H         5.113895        -0.751424        -0.058320
 H         2.635613         2.267737        -0.725606
 H         2.221229         1.073475        -2.020115
 H         0.340242         0.541240        -0.116364
 H         2.158676        -1.370503        -1.352738
 H         1.685420        -0.695470         2.599250
 H         3.440761        -0.899701         2.475531
 H         2.679975         2.485375         1.065815
