19
Iteration:  2036
 C         4.788455         0.172119        -0.425318
 C         3.365822         0.177027        -0.282858
 C         2.288341         0.863242        -1.219715
 C         1.456324         0.292002        -0.053581
 C         2.286816        -1.020512        -0.144347
 O         2.344190        -1.622872         1.154064
 C         2.601225        -0.442860         1.958106
 C         2.484574         0.687645         0.942987
 O         2.488128         1.932337         1.534682
 H         5.240514         0.037742         0.574663
 H         5.165773        -0.734048        -1.079872
 H         5.214798         1.085718        -0.866267
 H         2.216542         1.933919        -1.357188
 H         2.195004         0.272508        -2.189869
 H         0.424219         0.190554         0.250627
 H         2.193858        -1.946652        -0.871318
 H         1.711009        -0.312484         2.616261
 H         3.482070        -0.527080         2.637043
 H         2.679303         2.652386         0.941116
