19
Iteration:  4819
 C         4.825550         0.399414        -0.408422
 C         3.334737         0.338409        -0.303465
 C         2.178130         1.120374        -1.179122
 C         1.370004         0.372342        -0.113095
 C         2.278709        -0.877988        -0.274426
 O         2.424150        -1.803916         0.876138
 C         2.422303        -0.709227         1.909634
 C         2.571603         0.590452         0.976767
 O         2.669113         1.667699         1.920320
 H         5.102529         1.054033        -1.230737
 H         5.259155         0.634373         0.591084
 H         5.252778        -0.625271        -0.646257
 H         2.170408         2.228047        -1.061311
 H         2.022460         0.771162        -2.228460
 H         0.312772         0.185339         0.151597
 H         1.992111        -1.414153        -1.201457
 H         1.463344        -0.713155         2.537115
 H         3.235774        -0.846150         2.645628
 H         3.031564         2.433854         1.383004
