19
Iteration:  1173charge 0 multiplicity 1
 C         4.784679         0.214075        -0.366415
 C         3.274833         0.183050        -0.324551
 C         2.234187         0.773750        -1.259184
 C         1.435760         0.260725        -0.105665
 C         2.263552        -1.044283        -0.138192
 O         2.434772        -1.568390         1.144015
 C         2.569438        -0.432141         2.021653
 C         2.461146         0.672569         0.954242
 O         2.592043         1.945467         1.552179
 H         5.070449        -0.075633         0.701863
 H         5.253390        -0.576425        -1.044701
 H         5.128812         1.237366        -0.590789
 H         2.408979         1.901855        -1.516394
 H         2.240671         0.054947        -2.073918
 H         0.351195         0.189320        -0.074539
 H         2.159355        -1.829691        -0.980494
 H         1.775781        -0.545841         2.767604
 H         3.557472        -0.209478         2.454081
 H         2.444394         2.635460         0.815424
