19
Iteration:  1723
 C         4.850482         0.232734        -0.347154
 C         3.307468         0.161273        -0.385898
 C         2.263667         0.792420        -1.254693
 C         1.409480         0.272538        -0.118644
 C         2.174700        -1.080508        -0.129115
 O         2.490120        -1.581316         1.200809
 C         2.453008        -0.404167         1.983193
 C         2.510140         0.712565         0.943004
 O         2.607075         1.895420         1.565893
 H         5.232169        -0.606128         0.252643
 H         5.339928         0.219120        -1.356956
 H         5.310855         1.215302         0.084174
 H         2.378218         1.793669        -1.421205
 H         2.030929         0.233984        -2.283340
 H         0.241914         0.115279         0.069423
 H         2.075473        -1.768351        -1.003383
 H         1.477371        -0.427719         2.595229
 H         3.405553        -0.339087         2.603346
 H         2.432130         2.641054         0.885694
