19
Iteration:  1697
 C         4.768517         0.194677        -0.331708
 C         3.267203         0.171127        -0.268963
 C         2.216458         0.878367        -1.258883
 C         1.395359         0.233334        -0.118945
 C         2.375979        -1.059429        -0.113424
 O         2.523597        -1.623923         1.175561
 C         2.387138        -0.438501         1.997008
 C         2.413409         0.690445         0.992944
 O         2.681032         1.952511         1.455874
 H         5.262699        -0.753879         0.009582
 H         4.964306         0.269444        -1.480685
 H         5.314077         1.038245         0.118685
 H         2.349121         2.000457        -1.409417
 H         2.097565         0.423972        -2.161904
 H         0.333204         0.184251         0.113081
 H         2.340159        -1.796664        -0.958519
 H         1.382664        -0.454854         2.526932
 H         3.197840        -0.407272         2.707977
 H         2.703994         2.544114         0.636412
