19
Iteration:  3525
 C         4.857029         0.208392        -0.421074
 C         3.344495         0.305403        -0.296659
 C         2.336251         1.226597        -1.066306
 C         1.414806         0.356346        -0.126714
 C         2.269555        -0.898888        -0.318055
 O         2.322773        -1.690540         0.863066
 C         2.553064        -0.656171         1.908496
 C         2.446461         0.568053         1.006435
 O         2.499333         1.679419         1.835377
 H         5.229017         0.761330        -1.281516
 H         5.350892         0.832157         0.339744
 H         5.085486        -0.906222        -0.347824
 H         2.213296         2.309534        -0.938508
 H         2.197676         0.941589        -2.192134
 H         0.304802         0.451065        -0.015923
 H         2.205691        -1.554563        -1.160539
 H         1.692898        -0.565805         2.661923
 H         3.525781        -0.775471         2.446812
 H         3.474231         1.706882         2.051551
