19
Iteration:   437charge 0 multiplicity 1
 C         4.864280         0.102324        -0.338516
 C         3.260771         0.143794        -0.283307
 C         2.259042         0.906232        -1.221208
 C         1.396473         0.251224        -0.136189
 C         2.350775        -0.998547        -0.100511
 O         2.453192        -1.671040         1.182709
 C         2.480994        -0.413091         1.989484
 C         2.439652         0.653623         0.970920
 O         2.577005         1.994209         1.447582
 H         5.185127        -0.133503         0.680416
 H         5.201910        -0.534899        -1.147288
 H         5.095702         1.241209        -0.507893
 H         2.439722         2.038926        -1.472760
 H         2.091079         0.469176        -2.203628
 H         0.342154         0.250341        -0.102066
 H         2.149284        -1.754828        -0.864290
 H         1.638420        -0.339532         2.679452
 H         3.428561        -0.340456         2.569131
 H         2.426531         2.528884         0.696055
