19
Iteration:  3491
 C         4.788403         0.215896        -0.341875
 C         3.287491         0.331326        -0.201099
 C         2.347438         1.078047        -1.102196
 C         1.399660         0.383971        -0.044520
 C         2.205834        -0.872988        -0.358731
 O         2.375157        -1.703859         0.699148
 C         2.567153        -0.769111         1.884277
 C         2.505055         0.621429         1.073803
 O         2.593663         1.843901         1.788950
 H         5.068313         0.036355        -1.378890
 H         5.251822         1.139439         0.131410
 H         5.432930        -0.561415         0.153844
 H         2.193883         2.144603        -1.182484
 H         2.193470         0.526879        -2.125118
 H         0.334682         0.494686         0.230226
 H         2.124947        -1.430888        -1.350614
 H         1.655310        -0.707425         2.556078
 H         3.531572        -1.005260         2.402128
 H         2.601395         1.607826         2.802223
