19
Iteration:  1921
 C         4.803520         0.156609        -0.356181
 C         3.310215         0.257146        -0.196462
 C         2.245450         0.816122        -1.205747
 C         1.316278         0.171080        -0.239045
 C         2.250638        -1.067285        -0.134392
 O         2.464619        -1.615393         1.157263
 C         2.537785        -0.411677         2.002637
 C         2.450230         0.704077         0.986158
 O         2.599991         1.971459         1.469726
 H         5.290053        -0.869566        -0.125865
 H         5.009046         0.358212        -1.410311
 H         5.323835         0.989864         0.315413
 H         2.322617         1.969995        -1.265031
 H         2.188200         0.508621        -2.340405
 H         0.299920         0.309402         0.232802
 H         2.348471        -1.842828        -0.814664
 H         1.880412        -0.415372         2.912817
 H         3.588074        -0.393882         2.412220
 H         2.844507         2.520898         0.745013
