19
Iteration:  3597
 C         4.789658         0.170631        -0.341188
 C         3.256714         0.325604        -0.296625
 C         2.286613         1.133135        -1.095093
 C         1.392623         0.343492        -0.126270
 C         2.274577        -0.904219        -0.358533
 O         2.375062        -1.699715         0.804082
 C         2.495991        -0.620748         1.885526
 C         2.513978         0.579310         1.077309
 O         2.665344         1.693299         1.880556
 H         5.248940         0.869059        -1.057045
 H         5.233324         0.689786         0.577427
 H         5.109510        -0.830375        -0.442238
 H         2.337826         2.237150        -0.980343
 H         2.187252         1.028237        -2.142024
 H         0.324092         0.367346         0.058114
 H         2.295204        -1.490470        -1.397227
 H         1.659386        -0.670495         2.590154
 H         3.381989        -0.627405         2.554799
 H         2.557405         2.536374         1.318000
