19
Iteration:   219charge 0 multiplicity 1
 C         4.930118         0.062333        -0.469555
 C         3.328193         0.175951        -0.241120
 C         2.271615         0.848220        -1.167779
 C         1.283899         0.223688        -0.142208
 C         2.269022        -0.958646        -0.102725
 O         2.577338        -1.542891         1.200367
 C         2.417425        -0.439355         2.062322
 C         2.425455         0.656892         0.997402
 O         2.513419         1.988436         1.339135
 H         5.278854        -0.512757         0.319106
 H         5.087597        -0.568346        -1.317943
 H         5.407946         1.075113        -0.555065
 H         2.217837         1.919299        -1.118954
 H         2.049226         0.598165        -2.174233
 H         0.208790         0.139585        -0.010570
 H         2.177084        -1.665238        -0.982425
 H         1.416462        -0.376375         2.544952
 H         3.155419        -0.336241         2.882212
 H         3.542506         2.120876         1.517878
