19
Iteration:  4142
 C         4.867977         0.236331        -0.298383
 C         3.396268         0.214655        -0.350436
 C         2.271574         1.225479        -1.054891
 C         1.403110         0.370743        -0.016271
 C         2.254725        -0.858265        -0.388277
 O         2.343765        -1.712501         0.765263
 C         2.486613        -0.716576         1.877328
 C         2.533928         0.591431         1.035198
 O         2.590262         1.674852         1.864643
 H         5.399747        -0.207918        -1.162205
 H         5.156052         1.315497        -0.096270
 H         5.300109        -0.144655         0.627362
 H         2.224494         2.310902        -1.054623
 H         2.058631         1.039774        -2.152772
 H         0.359978         0.553278         0.143573
 H         1.893500        -1.380558        -1.321734
 H         1.635304        -0.607814         2.555062
 H         3.375522        -1.050795         2.433521
 H         2.188831         2.341219         1.271773
