19
Iteration:  1166
 C         4.802528         0.180863        -0.351132
 C         3.257957         0.116920        -0.266802
 C         2.275459         0.780459        -1.273992
 C         1.406478         0.238809        -0.092596
 C         2.344293        -1.038870        -0.138192
 O         2.398325        -1.559912         1.134689
 C         2.600964        -0.446192         1.978556
 C         2.431297         0.685227         0.981080
 O         2.556770         1.966816         1.535107
 H         5.296036         0.059934         0.581019
 H         5.316332        -0.452723        -1.051004
 H         5.138931         1.198733        -0.736164
 H         2.166327         1.895329        -1.547015
 H         2.097320         0.275889        -2.241437
 H         0.341289         0.324300        -0.017881
 H         1.949531        -1.596870        -0.927531
 H         1.876987        -0.459222         2.865521
 H         3.702554        -0.323195         2.387078
 H         2.507070         2.703315         0.908774
