19
Iteration:  4436
 C         4.863743         0.292176        -0.227657
 C         3.278757         0.228947        -0.291871
 C         2.243183         1.345747        -0.940066
 C         1.333166         0.297747        -0.068221
 C         2.294217        -0.932206        -0.421645
 O         2.374451        -1.704648         0.790092
 C         2.468976        -0.677534         1.905441
 C         2.480446         0.443224         1.007495
 O         2.736999         1.735503         1.690399
 H         5.286277         0.342666        -1.261337
 H         5.304876         1.110620         0.227480
 H         5.276080        -0.630035         0.131140
 H         2.275732         2.388464        -0.612701
 H         2.221724         1.318797        -2.073997
 H         0.325366         0.195351         0.269419
 H         2.127021        -1.544793        -1.365534
 H         1.545875        -0.750498         2.514264
 H         3.373916        -0.940116         2.478840
 H         2.038359         2.373953         1.410672
