19
Iteration:  4790charge 0 multiplicity 1
 C         4.827733         0.430946        -0.425948
 C         3.323859         0.264380        -0.309999
 C         2.283297         1.088825        -0.950229
 C         1.340585         0.366948         0.045029
 C         2.343134        -0.875846        -0.331953
 O         2.395804        -1.766437         0.806846
 C         2.420638        -0.756656         1.879440
 C         2.459384         0.532065         1.053809
 O         2.653840         1.786641         1.710812
 H         5.224043         1.167101        -1.144015
 H         5.136341         0.624959         0.665019
 H         5.092230        -0.614113        -0.671431
 H         2.408819         2.175175        -0.731427
 H         2.061824         0.820763        -1.963056
 H         0.231640         0.229624         0.278496
 H         2.113240        -1.434635        -1.266006
 H         1.513360        -0.854001         2.437089
 H         3.266653        -0.998290         2.541783
 H         3.277456         2.290541         1.021484
