19
Iteration:  2657charge 0 multiplicity 1
 C         4.831616         0.143330        -0.526118
 C         3.315923         0.221188        -0.217528
 C         2.304061         1.052193        -1.068738
 C         1.409272         0.219733        -0.113218
 C         2.293405        -0.942529        -0.169294
 O         2.341797        -1.677936         1.043824
 C         2.633069        -0.621647         1.988335
 C         2.494697         0.630660         1.054144
 O         2.409065         2.012134         1.485824
 H         5.111346        -0.842108        -0.876807
 H         5.164937         0.916403        -1.219527
 H         5.353990         0.353502         0.408234
 H         2.513040         2.120225        -1.009777
 H         2.221256         0.854246        -2.148300
 H         0.328810         0.126194        -0.133031
 H         2.193873        -1.742854        -1.082051
 H         1.979197        -0.638084         2.858094
 H         3.582568        -0.844738         2.367780
 H         3.242098         2.263844         1.962742
