19
Iteration:  3775
 C         4.858447         0.287359        -0.329631
 C         3.314599         0.211275        -0.309824
 C         2.391733         1.275723        -0.908224
 C         1.355930         0.440387        -0.083374
 C         2.210892        -0.895258        -0.381014
 O         2.339502        -1.717723         0.819899
 C         2.566154        -0.778331         1.926894
 C         2.408274         0.466056         0.980833
 O         2.646858         1.696034         1.719785
 H         5.271815        -0.601377        -0.720424
 H         5.045076         1.207325        -0.944047
 H         5.139952         0.234518         0.761171
 H         2.542262         2.317031        -0.549798
 H         2.399667         1.411823        -2.075750
 H         0.220875         0.465915        -0.050807
 H         2.026388        -1.427639        -1.268577
 H         1.763567        -0.915643         2.690107
 H         3.569683        -0.599020         2.340418
 H         2.071090         2.496943         1.404480
