19
Iteration:  3300charge 0 multiplicity 1
 C         4.774644         0.242817        -0.397214
 C         3.268533         0.320795        -0.315549
 C         2.184921         1.150977        -1.130471
 C         1.331569         0.310688        -0.093345
 C         2.258533        -0.892555        -0.342988
 O         2.462477        -1.702175         0.880077
 C         2.527427        -0.650980         1.826457
 C         2.495461         0.580445         1.068611
 O         2.668887         1.682145         1.926828
 H         5.211952         0.713119        -1.348281
 H         5.281223         0.773025         0.483001
 H         5.235543        -0.793375        -0.339583
 H         2.186458         2.283295        -1.010412
 H         2.098891         0.956815        -2.187265
 H         0.168654         0.423587        -0.115106
 H         2.132384        -1.313711        -1.316060
 H         1.825598        -0.750463         2.680659
 H         3.568063        -0.715220         2.338544
 H         3.196981         2.331374         1.497982
