19
Iteration:  1424
 C         4.841748         0.130456        -0.421032
 C         3.349603         0.153621        -0.270546
 C         2.276709         0.857535        -1.231755
 C         1.388876         0.188349        -0.099268
 C         2.292502        -0.999005        -0.182863
 O         2.472458        -1.564183         1.149565
 C         2.545446        -0.379299         2.060368
 C         2.463289         0.637827         0.932897
 O         2.486892         1.977125         1.548715
 H         5.110736        -0.500595         0.402547
 H         5.114048        -0.448644        -1.296074
 H         5.337946         1.019575        -0.381088
 H         2.277939         1.877299        -1.309203
 H         2.051191         0.302819        -2.221287
 H         0.283110         0.109152        -0.223221
 H         2.067542        -1.828291        -0.792193
 H         1.586022        -0.250980         2.619253
 H         3.434946        -0.250067         2.670613
 H         2.594283         2.638221         0.885222
