19
Iteration:  4063charge 0 multiplicity 1
 C         4.875829         0.209955        -0.356840
 C         3.379918         0.342260        -0.341134
 C         2.193346         1.228632        -1.154472
 C         1.497125         0.439229        -0.052465
 C         2.235261        -0.856302        -0.424424
 O         2.397796        -1.752114         0.842088
 C         2.455204        -0.647423         1.854781
 C         2.544389         0.582086         1.046851
 O         2.556860         1.610231         1.985794
 H         5.347824        -0.583898        -1.018730
 H         5.318841         1.096701        -0.744608
 H         5.185812        -0.032447         0.634532
 H         2.479189         2.211429        -1.083484
 H         1.968384         0.807932        -2.151660
 H         0.450883         0.285029         0.083531
 H         1.952004        -1.492719        -1.333871
 H         1.518129        -0.803741         2.368984
 H         3.205536        -0.842958         2.579345
 H         2.232806         2.382178         1.531279
