19
Iteration:  4071
 C         4.868948         0.223649        -0.352994
 C         3.341509         0.297167        -0.378391
 C         2.293603         1.188549        -1.088123
 C         1.398585         0.490060        -0.030313
 C         2.293729        -0.896022        -0.359039
 O         2.378481        -1.748751         0.773140
 C         2.487554        -0.693923         1.854306
 C         2.479260         0.586516         1.038772
 O         2.598721         1.624005         1.953194
 H         5.329225        -0.552290        -0.947879
 H         5.261883         1.185453        -0.688920
 H         5.245997         0.151230         0.705031
 H         2.272925         2.305848        -1.182072
 H         2.114638         0.818176        -2.124624
 H         0.263075         0.390405         0.091014
 H         2.073049        -1.451184        -1.247716
 H         1.522522        -0.580054         2.386370
 H         3.305958        -0.707468         2.559823
 H         2.125365         2.416066         1.592540
