19
Iteration:  4834
 C         4.765912         0.334877        -0.453306
 C         3.231008         0.349979        -0.323819
 C         2.283634         1.087610        -1.126192
 C         1.390722         0.328991        -0.060071
 C         2.374930        -0.940635        -0.343996
 O         2.375021        -1.659345         0.882944
 C         2.522876        -0.673292         1.829184
 C         2.377637         0.576099         1.087263
 O         2.696725         1.636303         1.933375
 H         5.160262         1.040145        -1.229036
 H         5.148038         0.734562         0.558338
 H         5.038147        -0.713363        -0.640000
 H         2.370284         2.185249        -1.024442
 H         2.220148         0.724469        -2.137326
 H         0.277421         0.504468        -0.128845
 H         2.516418        -1.631591        -1.185402
 H         1.667068        -0.724800         2.500501
 H         3.476168        -0.781593         2.372800
 H         2.719418         2.601564         1.524156
