19
Iteration:    10
 C         4.824587         0.131563        -0.367709
 C         3.338435         0.157410        -0.271363
 C         2.280869         0.867886        -1.250004
 C         1.401093         0.208778        -0.173201
 C         2.258298        -1.027500        -0.140317
 O         2.400017        -1.552751         1.212090
 C         2.538633        -0.410117         2.072938
 C         2.522824         0.648879         0.977719
 O         2.595824         2.017554         1.385253
 H         5.286586        -0.424706         0.311677
 H         5.043605        -0.329702        -1.342872
 H         5.332787         1.128130        -0.425648
 H         2.244579         2.022667        -1.257032
 H         2.010294         0.426345        -2.092939
 H         0.311982         0.149341        -0.018973
 H         2.079111        -1.938963        -0.711423
 H         1.702732        -0.595528         2.815821
 H         3.489333        -0.721634         2.356998
 H         1.699284         2.279287         1.603088
