19
Iteration:  3217charge 0 multiplicity 1
 C         4.778026         0.240359        -0.476798
 C         3.273037         0.255134        -0.294629
 C         2.260467         1.247956        -0.973285
 C         1.390158         0.329945         0.002080
 C         2.305259        -0.931767        -0.308542
 O         2.458073        -1.724738         0.866831
 C         2.484299        -0.764834         1.973396
 C         2.520995         0.568443         1.026019
 O         2.644604         1.793375         1.658868
 H         5.186257         1.178522        -0.036845
 H         5.218901        -0.574491         0.122033
 H         5.113793         0.162390        -1.525477
 H         2.383271         2.299555        -0.747435
 H         2.126294         1.130878        -2.090801
 H         0.404675         0.395338         0.196342
 H         2.050488        -1.456698        -1.263962
 H         1.542417        -0.693986         2.506561
 H         3.381279        -0.942110         2.568807
 H         1.914237         2.395194         1.452978
