19
Iteration:  3979charge 0 multiplicity 1
 C         4.911822         0.231159        -0.291157
 C         3.367895         0.303576        -0.360264
 C         2.231083         1.183160        -1.054491
 C         1.442609         0.318486         0.011123
 C         2.308673        -0.878791        -0.379847
 O         2.275294        -1.666841         0.816211
 C         2.502153        -0.696749         1.836850
 C         2.486956         0.568895         1.006635
 O         2.597190         1.690352         1.832384
 H         5.181029         0.681644        -1.287693
 H         5.272512         0.790004         0.615281
 H         5.358560        -0.740563        -0.160050
 H         2.087182         2.304136        -0.766602
 H         2.146334         1.119145        -2.168523
 H         0.427705         0.190701         0.368379
 H         2.109049        -1.528717        -1.299848
 H         1.642586        -0.863750         2.507392
 H         3.549181        -0.910598         2.278678
 H         2.354066         2.562011         1.282049
