19
Iteration:  2000charge 0 multiplicity 1
 C         4.774535         0.071789        -0.507037
 C         3.314460         0.137948        -0.275735
 C         2.372957         1.000119        -1.171353
 C         1.425040         0.264452        -0.111966
 C         2.411731        -1.005458        -0.151442
 O         2.365261        -1.594370         1.216948
 C         2.605913        -0.474486         2.054625
 C         2.410737         0.668527         1.015839
 O         2.462178         1.956451         1.459149
 H         5.316225        -0.453399         0.346971
 H         4.984917        -0.562266        -1.431382
 H         5.217359         1.134560        -0.636172
 H         2.152934         2.030658        -1.108459
 H         2.291926         0.572448        -2.267149
 H         0.351196         0.165879        -0.181257
 H         2.286723        -1.822379        -0.899690
 H         1.774509        -0.529251         2.758408
 H         3.616376        -0.444243         2.583737
 H         2.086272         2.509097         0.765588
