19
Iteration:   326
 C         4.853104         0.166923        -0.398477
 C         3.289258         0.153193        -0.288135
 C         2.251537         0.848832        -1.190301
 C         1.364970         0.219582        -0.090094
 C         2.355944        -1.016926        -0.116816
 O         2.454319        -1.665728         1.249586
 C         2.397547        -0.410836         2.055776
 C         2.439396         0.692816         0.939891
 O         2.659487         1.966414         1.367249
 H         5.425127        -0.573240         0.163995
 H         5.130918        -0.068622        -1.477705
 H         5.440393         1.184007        -0.210143
 H         2.326950         2.045360        -1.316876
 H         2.271420         0.459407        -2.224292
 H         0.303310         0.186696        -0.199852
 H         2.150429        -1.632612        -0.931016
 H         1.407489        -0.399609         2.556849
 H         3.201000        -0.303512         2.816968
 H         2.208687         2.788691         0.991336
