19
Iteration:  1644
 C         4.844935         0.138594        -0.402838
 C         3.343164         0.135432        -0.371194
 C         2.324771         0.857046        -1.195260
 C         1.431579         0.290848        -0.118035
 C         2.313082        -0.992003        -0.129654
 O         2.365201        -1.627862         1.234907
 C         2.624851        -0.404674         1.982883
 C         2.465443         0.684712         0.913593
 O         2.394469         1.896289         1.529101
 H         5.176428        -0.593261         0.359184
 H         5.295283        -0.243003        -1.399298
 H         5.231985         1.143102        -0.132248
 H         2.367723         1.899512        -1.297240
 H         2.213466         0.389172        -2.223758
 H         0.384734         0.625701         0.103811
 H         2.113578        -1.719047        -0.968276
 H         1.924622        -0.153096         2.861381
 H         3.635134        -0.458368         2.444947
 H         2.424499         2.636212         0.853327
