19
Iteration:   582
 C         4.782546         0.085948        -0.339142
 C         3.263169         0.158149        -0.303467
 C         2.246786         0.920403        -1.168367
 C         1.388518         0.257959        -0.119064
 C         2.390284        -1.012590        -0.167569
 O         2.579767        -1.664719         1.218407
 C         2.444607        -0.472104         2.008507
 C         2.382726         0.663937         0.958817
 O         2.605412         2.039269         1.386609
 H         5.150675        -0.768717         0.320833
 H         5.134214        -0.027567        -1.392165
 H         5.187578         0.991565         0.064301
 H         2.136130         2.008890        -1.097685
 H         2.146773         0.489009        -2.116895
 H         0.337613         0.378105         0.033766
 H         2.185448        -1.827797        -0.988399
 H         1.500697        -0.412107         2.560531
 H         3.283630        -0.433023         2.713684
 H         2.302994         2.733968         0.760922
