19
Iteration:  2961
 C         4.746741         0.247633        -0.404200
 C         3.279962         0.356403        -0.209776
 C         2.260522         0.977749        -1.199079
 C         1.337051         0.374011        -0.068121
 C         2.383608        -0.965366        -0.274769
 O         2.433667        -1.721171         0.975253
 C         2.501854        -0.630276         1.905222
 C         2.411019         0.629423         0.995592
 O         2.682476         1.866383         1.682894
 H         4.881319         0.408082        -1.488586
 H         5.384486         1.040528         0.063410
 H         4.931755        -0.820887        -0.046775
 H         2.277417         2.164418        -1.303865
 H         2.185253         0.361577        -2.138672
 H         0.204436         0.321591         0.154572
 H         2.248777        -1.561304        -1.133382
 H         1.510472        -0.582532         2.485820
 H         3.429613        -0.749116         2.488912
 H         3.144469         1.568367         2.421769
