19
Iteration:  2387
 C         4.823127         0.139237        -0.347635
 C         3.304026         0.181104        -0.341105
 C         2.306360         0.863672        -1.226227
 C         1.353631         0.262236        -0.107815
 C         2.333029        -1.024264        -0.212718
 O         2.320008        -1.569130         1.127622
 C         2.661584        -0.432723         1.990444
 C         2.487569         0.674413         0.915053
 O         2.506042         1.896856         1.658239
 H         5.037328         1.100844         0.172825
 H         5.395779        -0.734336         0.024742
 H         5.128463         0.161766        -1.381467
 H         2.293098         1.940151        -1.466754
 H         2.252462         0.327188        -2.346005
 H         0.260149         0.291929         0.001513
 H         2.090728        -1.865384        -0.849552
 H         1.984100        -0.301598         2.821457
 H         3.758741        -0.514276         2.300301
 H         2.448338         2.730833         1.091058
