19
Iteration:  1215
 C         4.809405         0.179681        -0.409846
 C         3.310747         0.126614        -0.327856
 C         2.301502         0.842138        -1.194436
 C         1.349531         0.168626        -0.084428
 C         2.398276        -1.024134        -0.176716
 O         2.506358        -1.561566         1.163627
 C         2.381655        -0.387734         2.051298
 C         2.392307         0.665520         1.022776
 O         2.646318         1.978319         1.462629
 H         5.169918        -0.680905         0.246902
 H         5.213860        -0.027618        -1.440137
 H         5.238032         1.124591        -0.176400
 H         2.169062         1.908779        -1.073352
 H         1.816832         0.434660        -2.171059
 H         0.168040         0.118709         0.068206
 H         2.277543        -1.874768        -0.996753
 H         1.503194        -0.190631         2.681990
 H         3.294463        -0.547686         2.589962
 H         2.497060         2.566583         0.660372
