19
Iteration:  2860
 C         4.765997         0.087853        -0.352887
 C         3.291449         0.264989        -0.361839
 C         2.243172         1.086346        -1.120589
 C         1.403389         0.338173        -0.032241
 C         2.309226        -0.988975        -0.262820
 O         2.451409        -1.698568         1.017828
 C         2.628603        -0.578488         1.892246
 C         2.520174         0.623005         0.967150
 O         2.450511         1.915488         1.644861
 H         5.272301         0.970989         0.034427
 H         4.973249        -0.867078         0.057385
 H         4.985475         0.115686        -1.415469
 H         2.330323         2.108549        -1.043716
 H         2.073116         0.863993        -2.219463
 H         0.353062         0.474637         0.043207
 H         2.119413        -1.590505        -1.135033
 H         1.804013        -0.542199         2.594546
 H         3.502809        -0.607049         2.487969
 H         3.309905         1.952417         2.216112
