19
Iteration:   838charge 0 multiplicity 1
 C         4.781363         0.178110        -0.361042
 C         3.296549         0.207969        -0.339126
 C         2.208070         0.777226        -1.253934
 C         1.370310         0.272663        -0.127401
 C         2.331088        -1.067738        -0.121997
 O         2.525553        -1.551159         1.141525
 C         2.465182        -0.414335         2.013889
 C         2.436100         0.672893         0.966773
 O         2.674238         1.937603         1.532556
 H         5.018994        -0.517056         0.440126
 H         5.276360        -0.111706        -1.304086
 H         5.278604         1.156638        -0.051518
 H         2.127327         1.846270        -1.259811
 H         1.913027         0.190577        -2.243960
 H         0.167143         0.212962        -0.118777
 H         2.180284        -1.766061        -0.897844
 H         1.500934        -0.416707         2.622782
 H         3.214431        -0.569243         2.748793
 H         2.575580         2.618935         0.929761
