19
Iteration:  1841charge 0 multiplicity 1
 C         4.716144         0.139813        -0.385178
 C         3.287902         0.175943        -0.302140
 C         2.253970         0.785624        -1.300001
 C         1.374969         0.299731        -0.117910
 C         2.460433        -1.049413        -0.147422
 O         2.459657        -1.597493         1.139246
 C         2.499539        -0.412862         2.022517
 C         2.394791         0.730597         0.988381
 O         2.636647         1.935950         1.597907
 H         5.232967        -0.320414         0.451733
 H         4.879295        -0.417316        -1.365353
 H         5.150905         1.151664        -0.640578
 H         2.301075         1.995212        -1.519129
 H         2.433213         0.250231        -2.194312
 H         0.210984         0.259461        -0.152122
 H         2.431421        -1.898323        -0.913756
 H         1.503753        -0.344838         2.535012
 H         3.309093        -0.463288         2.727091
 H         2.261926         2.685776         1.161102
