19
Iteration:  4584
 C         4.774747         0.243496        -0.290092
 C         3.339883         0.284795        -0.292941
 C         2.268531         1.246195        -1.019188
 C         1.384880         0.295615        -0.068229
 C         2.293493        -0.867816        -0.422159
 O         2.384923        -1.682794         0.810060
 C         2.520638        -0.667936         1.811533
 C         2.460259         0.473568         1.033464
 O         2.571880         1.740759         1.837255
 H         4.967626        -0.225192        -1.234793
 H         5.312436         1.214332        -0.234880
 H         5.294829        -0.371467         0.429528
 H         2.236046         2.359069        -0.747460
 H         2.073903         0.995411        -2.082353
 H         0.278393         0.247639         0.186168
 H         2.394689        -1.556611        -1.323405
 H         1.694563        -0.630498         2.575857
 H         3.492644        -0.847807         2.307263
 H         3.532241         2.132224         1.709593
