19
Iteration:  2686charge 0 multiplicity 1
 C         4.805845         0.083101        -0.436350
 C         3.289138         0.215679        -0.255496
 C         2.206997         1.045877        -1.077426
 C         1.380284         0.325061        -0.007182
 C         2.331033        -0.922901        -0.207869
 O         2.536516        -1.667926         1.009740
 C         2.519887        -0.579717         1.944421
 C         2.483147         0.627671         1.016161
 O         2.493922         1.940578         1.434601
 H         4.995988        -1.006512        -0.569949
 H         5.261019         0.701186        -1.224640
 H         5.177500         0.534775         0.523609
 H         2.514781         2.050058        -1.075781
 H         1.993833         0.677942        -2.150023
 H         0.325470         0.322601         0.162849
 H         2.070737        -1.505274        -0.929681
 H         1.627988        -0.642217         2.602666
 H         3.509866        -0.657931         2.566334
 H         2.942366         1.974530         2.234381
