19
Iteration:  1077
 C         4.771695         0.118830        -0.443545
 C         3.288453         0.155199        -0.225706
 C         2.257076         0.835103        -1.327836
 C         1.337820         0.212682        -0.145246
 C         2.360679        -0.942228        -0.128491
 O         2.573214        -1.572095         1.189491
 C         2.402268        -0.430379         2.056180
 C         2.529939         0.738448         0.978565
 O         2.577059         1.925350         1.554526
 H         4.980817        -0.687605         0.218845
 H         5.080246        -0.188659        -1.461783
 H         5.179684         1.132111        -0.218421
 H         2.400368         1.881229        -1.766109
 H         2.045680         0.303115        -2.248306
 H         0.289113         0.256495        -0.005729
 H         2.319647        -1.756657        -0.900930
 H         1.393736        -0.453021         2.619316
 H         3.289472        -0.623125         2.788064
 H         2.353689         2.582220         0.888170
