19
Iteration:    90
 C         4.783356         0.089672        -0.377674
 C         3.293346         0.173823        -0.263542
 C         2.158933         0.852471        -1.250126
 C         1.465556         0.238421        -0.045618
 C         2.378547        -1.083908        -0.154392
 O         2.521253        -1.593704         1.177188
 C         2.440901        -0.389283         1.992354
 C         2.428645         0.698719         0.982555
 O         2.571703         2.043674         1.375732
 H         5.180838        -0.545177         0.517183
 H         4.928138        -0.342304        -1.347607
 H         5.232341         1.035052        -0.347280
 H         2.129644         1.877551        -1.290928
 H         2.087884         0.368989        -2.271183
 H         0.377594         0.260036         0.098468
 H         2.279606        -1.796301        -0.994281
 H         1.456263        -0.425947         2.473859
 H         3.186874        -0.275679         2.773055
 H         3.366950         2.038557         1.909612
