19
Iteration:  4942
 C         4.784673         0.330872        -0.471581
 C         3.270548         0.322284        -0.266450
 C         2.263142         1.093827        -1.080055
 C         1.292424         0.352291        -0.147871
 C         2.284023        -0.871683        -0.332380
 O         2.448744        -1.636789         0.826059
 C         2.483963        -0.711733         1.868562
 C         2.500914         0.595830         1.072184
 O         2.661355         1.600140         1.975551
 H         5.049586        -0.275156        -1.329286
 H         5.251351         1.396997        -0.550283
 H         5.333268         0.018376         0.436748
 H         2.318345         2.179875        -1.293461
 H         2.272697         0.714348        -2.113282
 H         0.164900         0.250531        -0.035550
 H         2.379289        -1.544584        -1.181807
 H         1.579728        -0.745338         2.541891
 H         3.403072        -0.856083         2.508790
 H         3.031095         2.443418         1.463116
