19
Iteration:  3511charge 0 multiplicity 1
 C         4.829553         0.217985        -0.400612
 C         3.316070         0.340218        -0.287632
 C         2.266144         1.091795        -1.150123
 C         1.407723         0.456500        -0.093816
 C         2.389374        -0.840640        -0.325377
 O         2.315504        -1.745310         0.872303
 C         2.516975        -0.754279         1.815923
 C         2.415346         0.601207         1.082102
 O         2.558799         1.800870         1.864494
 H         5.142659         0.351114        -1.445173
 H         5.339305         0.840875         0.442665
 H         5.234625        -0.762579        -0.161629
 H         2.451298         2.162677        -1.116214
 H         2.127978         0.797220        -2.214958
 H         0.344052         0.280406        -0.187788
 H         2.093294        -1.412326        -1.316197
 H         1.820092        -0.960631         2.711639
 H         3.602771        -0.866628         2.223643
 H         3.254103         1.675527         2.562853
