19
Iteration:  1821
 C         4.825782         0.084195        -0.449032
 C         3.360107         0.238031        -0.225350
 C         2.217976         0.823519        -1.270872
 C         1.349558         0.214017        -0.124185
 C         2.330440        -0.958896        -0.112035
 O         2.552996        -1.599425         1.139955
 C         2.390907        -0.459844         1.977315
 C         2.421724         0.704149         0.948649
 O         2.603102         1.964972         1.610729
 H         5.207728        -0.248644         0.562782
 H         5.016759        -0.802179        -1.105680
 H         5.476198         0.998960        -0.797994
 H         2.216033         1.914977        -1.461495
 H         2.109699         0.299975        -2.282662
 H         0.192377         0.271202        -0.088728
 H         2.454137        -1.624177        -0.947673
 H         1.487844        -0.478006         2.662756
 H         3.307452        -0.255789         2.568459
 H         2.384657         2.680936         0.929078
