19
Iteration:  4504charge 0 multiplicity 1
 C         4.898026         0.223544        -0.421726
 C         3.359437         0.326218        -0.281233
 C         2.241210         1.229495        -1.183921
 C         1.441511         0.423391        -0.154345
 C         2.327871        -1.001564        -0.402293
 O         2.332598        -1.721549         0.871625
 C         2.505928        -0.611565         1.927662
 C         2.418608         0.587412         1.053780
 O         2.595914         1.630209         1.965727
 H         5.348136         0.727073        -1.193374
 H         5.398473         0.716716         0.401266
 H         5.046232        -0.854036        -0.481886
 H         2.255280         2.376377        -1.116273
 H         2.227006         0.985751        -2.299521
 H         0.349420         0.470787        -0.068691
 H         2.109866        -1.707680        -1.124477
 H         1.800066        -0.648888         2.800505
 H         3.567263        -0.792079         2.273255
 H         1.835382         2.399066         1.933764
