19
Iteration:  1507
 C         4.794386         0.182278        -0.417775
 C         3.330013         0.158027        -0.306508
 C         2.285929         0.809826        -1.379061
 C         1.435823         0.216394        -0.159012
 C         2.327899        -1.045459        -0.095516
 O         2.344954        -1.604115         1.211193
 C         2.582638        -0.407795         2.015217
 C         2.419363         0.675079         0.977512
 O         2.539622         1.966487         1.586483
 H         5.236171        -0.646039         0.241697
 H         5.370635         0.143649        -1.368279
 H         5.178362         1.056925         0.261364
 H         2.012635         1.909000        -1.495968
 H         2.198723         0.393915        -2.288581
 H         0.334340         0.246433        -0.039637
 H         2.291668        -1.840619        -0.937530
 H         1.988087        -0.170010         2.874319
 H         3.656567        -0.336191         2.364847
 H         2.564420         2.727642         0.987068
