19
Iteration:  2334
 C         4.814757         0.094589        -0.450031
 C         3.319024         0.122025        -0.305833
 C         2.274663         0.988419        -1.094175
 C         1.431055         0.226975        -0.095453
 C         2.323790        -0.991419        -0.143050
 O         2.547723        -1.579383         1.091472
 C         2.376648        -0.437296         2.038280
 C         2.530986         0.661808         0.978917
 O         2.507220         1.927865         1.470574
 H         5.386507         0.386537         0.477855
 H         5.059296        -0.942790        -0.689060
 H         5.290305         0.609449        -1.311611
 H         2.208935         2.035470        -0.905565
 H         1.877200         0.650015        -2.197364
 H         0.300296         0.035442         0.034484
 H         2.161325        -1.788162        -0.767539
 H         1.484433        -0.423267         2.655431
 H         3.183678        -0.466689         2.734652
 H         2.428083         2.694638         0.807356
