19
Iteration:  2152
 C         4.798945         0.078049        -0.462323
 C         3.319593         0.193608        -0.342253
 C         2.347952         0.881737        -1.307716
 C         1.442236         0.282308        -0.183331
 C         2.325140        -0.980726        -0.110490
 O         2.354429        -1.593252         1.244999
 C         2.639544        -0.438208         2.060861
 C         2.422389         0.653582         1.021100
 O         2.445923         1.944957         1.551401
 H         5.102936        -0.928740        -0.264158
 H         5.058590         0.314013        -1.442572
 H         5.370332         0.801099         0.152896
 H         2.071369         2.016507        -1.107907
 H         2.331138         0.486358        -2.324354
 H         0.393731         0.045623        -0.202095
 H         2.324381        -1.780681        -0.839549
 H         2.004359        -0.335686         2.936925
 H         3.675809        -0.417664         2.445597
 H         2.408990         2.476115         0.776342
