19
Iteration:   610charge 0 multiplicity 1
 C         4.836608         0.214830        -0.382929
 C         3.300390         0.199919        -0.298763
 C         2.276585         0.781659        -1.249608
 C         1.399280         0.206942        -0.137211
 C         2.305399        -1.058898        -0.151159
 O         2.420486        -1.559835         1.170446
 C         2.494213        -0.416585         2.006719
 C         2.487320         0.642111         0.984918
 O         2.594033         1.959219         1.534475
 H         5.238369        -0.467041         0.336420
 H         5.153208        -0.186788        -1.326186
 H         5.278891         1.274929        -0.290288
 H         2.117904         1.882242        -1.455996
 H         2.186049         0.171999        -2.200541
 H         0.278062         0.330781         0.051418
 H         2.196219        -1.790965        -0.883220
 H         1.593601        -0.198499         2.630171
 H         3.352815        -0.568009         2.702718
 H         2.282552         2.667498         0.873336
