19
Iteration:  4132charge 0 multiplicity 1
 C         4.905314         0.294695        -0.245678
 C         3.332423         0.211631        -0.322051
 C         2.246248         1.268681        -0.985632
 C         1.510323         0.397306        -0.025865
 C         2.256996        -0.895471        -0.414684
 O         2.276920        -1.701516         0.782526
 C         2.502342        -0.707634         1.820154
 C         2.523035         0.465133         1.033831
 O         2.611876         1.720114         1.794541
 H         5.333894        -0.279160        -1.079321
 H         5.239193         1.342145        -0.487817
 H         5.232707        -0.227193         0.662007
 H         2.288144         2.334947        -0.739378
 H         1.866925         0.942489        -1.959543
 H         0.465070         0.192246         0.070103
 H         1.935921        -1.523249        -1.262756
 H         1.625913        -0.803591         2.465029
 H         3.445070        -0.852964         2.403845
 H         2.132709         2.501431         1.345218
