19
Iteration:  1645charge 0 multiplicity 1
 C         4.841805         0.137108        -0.405603
 C         3.346240         0.132584        -0.363829
 C         2.321579         0.863378        -1.197518
 C         1.437038         0.292295        -0.115367
 C         2.317335        -0.986679        -0.138851
 O         2.365004        -1.625305         1.236563
 C         2.620803        -0.413486         1.993480
 C         2.468093         0.676039         0.913139
 O         2.394430         1.898936         1.521042
 H         5.172905        -0.577537         0.341262
 H         5.285596        -0.222140        -1.377737
 H         5.228437         1.135863        -0.115096
 H         2.353039         1.916964        -1.288484
 H         2.195984         0.372905        -2.277933
 H         0.350495         0.633214         0.094378
 H         2.105844        -1.758905        -0.953483
 H         1.939488        -0.140165         2.867125
 H         3.644824        -0.445075         2.457456
 H         2.434190         2.633027         0.884993
