19
Iteration:   147charge 0 multiplicity 1
 C         4.809131         0.198311        -0.387199
 C         3.298335         0.121285        -0.277812
 C         2.270037         0.783356        -1.185378
 C         1.376341         0.209934        -0.096679
 C         2.325530        -1.019942        -0.106963
 O         2.267719        -1.568044         1.221519
 C         2.672675        -0.431743         1.980565
 C         2.468669         0.689213         0.974037
 O         2.515769         2.028873         1.316522
 H         5.385157        -0.725794         0.111625
 H         5.200969         0.037549        -1.425956
 H         5.217936         1.155341        -0.040016
 H         2.581020         1.829571        -1.215412
 H         2.203746         0.469680        -2.301626
 H         0.270121         0.108086        -0.091676
 H         2.384286        -1.771111        -0.926717
 H         2.113531        -0.363614         2.936716
 H         3.773580        -0.431148         2.225888
 H         2.773663         2.065375         2.281491
