19
Iteration:  1536
 C         4.806633         0.205723        -0.418439
 C         3.310309         0.215020        -0.174880
 C         2.305628         0.804674        -1.222146
 C         1.388856         0.195478        -0.152328
 C         2.321028        -1.010824        -0.112528
 O         2.351712        -1.647471         1.133223
 C         2.551471        -0.387224         1.998855
 C         2.467639         0.669576         1.002458
 O         2.549762         1.949020         1.494106
 H         5.230768        -0.414490         0.315368
 H         5.123763        -0.140508        -1.366481
 H         5.233836         1.191331        -0.291979
 H         2.118302         1.855787        -1.394592
 H         2.265119         0.115667        -2.233238
 H         0.182617         0.197069        -0.178126
 H         2.365653        -1.738722        -0.946000
 H         1.832464        -0.084375         2.799483
 H         3.631738        -0.369827         2.414624
 H         2.870952         2.598104         0.774623
