19
Iteration:   475
 C         4.857385         0.179246        -0.424334
 C         3.326961         0.123746        -0.251950
 C         2.266804         0.849702        -1.167981
 C         1.394932         0.230506        -0.060585
 C         2.376650        -1.030881        -0.107398
 O         2.417459        -1.663544         1.188247
 C         2.376535        -0.415018         1.959862
 C         2.418017         0.693994         0.982394
 O         2.660435         2.003835         1.436121
 H         5.511012        -0.150369         0.419725
 H         5.340994        -0.338403        -1.306453
 H         5.034796         1.187142        -0.551639
 H         2.322164         1.907889        -1.262701
 H         2.094255         0.622922        -2.339673
 H         0.229761         0.055850        -0.103095
 H         2.282017        -1.757858        -1.005646
 H         1.408009        -0.489745         2.517151
 H         3.216923        -0.343285         2.668657
 H         2.214984         2.629353         0.796920
