19
Iteration:  2629charge 0 multiplicity 1
 C         4.867572         0.227579        -0.482032
 C         3.371256         0.211085        -0.290395
 C         2.242564         0.992353        -1.239359
 C         1.419028         0.288844        -0.101644
 C         2.241681        -1.007902        -0.147657
 O         2.344432        -1.646703         1.075599
 C         2.552810        -0.476263         1.939383
 C         2.492437         0.617776         0.989197
 O         2.458118         1.831452         1.686253
 H         5.401264        -0.598635        -1.080529
 H         5.189753         1.176148        -0.982336
 H         5.415718         0.015042         0.486627
 H         2.575263         2.112943        -1.345170
 H         1.974949         0.504882        -2.194787
 H         0.268646         0.399473        -0.026546
 H         2.295265        -1.723387        -0.917848
 H         1.897732        -0.341941         2.840705
 H         3.611419        -0.713031         2.369635
 H         3.369028         2.313498         1.629319
