19
Iteration:  2006
 C         4.851995         0.071133        -0.530565
 C         3.388659         0.123041        -0.255977
 C         2.318541         0.964133        -1.122625
 C         1.420742         0.272085        -0.188553
 C         2.311536        -0.962559        -0.148584
 O         2.364389        -1.615024         1.223192
 C         2.624296        -0.488317         2.062355
 C         2.390436         0.683717         0.987700
 O         2.450492         1.954684         1.461413
 H         5.280251        -0.268566         0.391176
 H         5.200682        -0.487375        -1.372776
 H         5.192541         1.044033        -0.704129
 H         2.310504         2.150082        -1.160627
 H         2.147359         0.754825        -2.116893
 H         0.320698        -0.006259        -0.043853
 H         2.324908        -1.890737        -0.739989
 H         1.829987        -0.494409         2.844836
 H         3.588547        -0.510227         2.525348
 H         2.191544         2.661586         0.758479
