19
Iteration:   281charge 0 multiplicity 1
 C         4.902353         0.190050        -0.351865
 C         3.312232         0.222797        -0.267553
 C         2.287285         0.743960        -1.325997
 C         1.402989         0.325865        -0.173878
 C         2.253576        -1.010176        -0.108227
 O         2.328096        -1.648356         1.282895
 C         2.616998        -0.383366         1.983732
 C         2.394286         0.626705         0.908834
 O         2.541165         1.931426         1.518386
 H         5.258270        -0.362385         0.576800
 H         5.367182        -0.448291        -1.214041
 H         5.364499         1.308506        -0.321654
 H         2.161492         1.968330        -1.595345
 H         1.906674         0.290785        -2.268380
 H         0.348835         0.362272         0.019117
 H         2.191127        -1.736227        -0.834828
 H         2.070381        -0.356693         2.968946
 H         3.726438        -0.320161         2.170437
 H         2.755283         2.518246         0.681289
