19
Iteration:   169charge 0 multiplicity 1
 C         4.897815         0.143387        -0.435837
 C         3.354655         0.208974        -0.313899
 C         2.275241         0.811814        -1.246248
 C         1.413310         0.215304        -0.112636
 C         2.230857        -1.047015        -0.112146
 O         2.362227        -1.569887         1.230078
 C         2.577017        -0.397520         2.032055
 C         2.473794         0.655875         0.968769
 O         2.498928         2.009390         1.400075
 H         5.453678        -0.711891         0.168961
 H         5.190739         0.023928        -1.506199
 H         5.133373         1.151622        -0.152834
 H         2.099658         1.825115        -1.593260
 H         2.250206         0.133683        -2.185968
 H         0.318783         0.315761         0.060057
 H         1.941924        -1.816689        -0.871222
 H         1.906474        -0.299001         2.907417
 H         3.623377        -0.327579         2.381233
 H         2.729435         1.936039         2.320084
