19
Iteration:  3461
 C         4.823010         0.221290        -0.359271
 C         3.265790         0.301592        -0.332418
 C         2.268712         1.304577        -0.948997
 C         1.391599         0.389609        -0.087271
 C         2.335881        -0.969545        -0.388023
 O         2.392898        -1.722611         0.825759
 C         2.477367        -0.715479         1.934765
 C         2.415853         0.508377         1.001160
 O         2.712790         1.735597         1.700619
 H         5.223564        -0.352584        -1.218507
 H         5.166870         1.224039        -0.397146
 H         5.242147        -0.115135         0.666451
 H         2.299277         2.345417        -0.617857
 H         2.049091         1.504969        -2.031246
 H         0.315915         0.441932         0.251586
 H         2.326409        -1.600524        -1.203837
 H         1.725131        -0.946184         2.689727
 H         3.404753        -0.942908         2.476224
 H         1.926166         2.084743         2.084811
