19
Iteration:   823
 C         4.783983         0.172643        -0.343277
 C         3.267304         0.122525        -0.296272
 C         2.153612         0.876839        -1.293463
 C         1.387403         0.171218        -0.058228
 C         2.404977        -1.001998        -0.138775
 O         2.490721        -1.632156         1.182178
 C         2.390872        -0.440753         1.999146
 C         2.473879         0.709777         0.913533
 O         2.664905         1.968663         1.528564
 H         5.318219        -0.683897         0.132578
 H         5.132110         0.113586        -1.439812
 H         5.131816         1.139591        -0.042034
 H         2.270231         2.031574        -1.464578
 H         2.116454         0.482247        -2.240059
 H         0.373640         0.223087         0.181288
 H         2.418402        -1.809715        -0.913715
 H         1.475607        -0.277600         2.635314
 H         3.270306        -0.178859         2.626138
 H         2.764295         2.594297         0.742844
