19
Iteration:  4594charge 0 multiplicity 1
 C         4.846038         0.258589        -0.293196
 C         3.267025         0.303116        -0.277166
 C         2.234980         1.153194        -1.090553
 C         1.340489         0.372192        -0.070473
 C         2.344461        -0.849072        -0.356086
 O         2.349238        -1.693818         0.831968
 C         2.534093        -0.723885         1.798475
 C         2.479709         0.635738         0.964014
 O         2.591339         1.650050         1.862598
 H         5.244054        -0.219173        -1.139111
 H         5.104864         1.354214        -0.329807
 H         5.249951        -0.187731         0.622856
 H         2.259075         2.279921        -0.782675
 H         2.225743         1.071960        -2.214269
 H         0.247961         0.066187        -0.000352
 H         2.098617        -1.467181        -1.258150
 H         1.831414        -0.655773         2.667536
 H         3.590410        -0.768744         2.218405
 H         3.630854         1.766691         1.973067
