19
Iteration:  3563
 C         4.839146         0.196387        -0.420940
 C         3.344832         0.323023        -0.232491
 C         2.313018         1.228600        -1.016457
 C         1.430589         0.376108        -0.004229
 C         2.292371        -0.885964        -0.321281
 O         2.377387        -1.790560         0.764119
 C         2.435257        -0.790146         1.961210
 C         2.418177         0.522557         1.142520
 O         2.554825         1.886133         1.697762
 H         5.229640         0.702608        -1.331848
 H         5.440082         0.417733         0.502039
 H         5.307413        -0.733260        -0.691870
 H         2.369450         2.327510        -0.760202
 H         2.190224         0.874507        -1.987104
 H         0.353969         0.535978         0.151039
 H         2.315977        -1.280037        -1.441970
 H         1.518874        -1.070900         2.423440
 H         3.406897        -0.876876         2.483774
 H         3.166280         2.267973         0.940262
