19
Iteration:  3676charge 0 multiplicity 1
 C         4.923754         0.189029        -0.418958
 C         3.316483         0.262249        -0.247309
 C         2.262715         1.287325        -0.907396
 C         1.387954         0.361677        -0.103305
 C         2.307951        -0.874800        -0.402941
 O         2.357880        -1.723064         0.807669
 C         2.444483        -0.724417         1.933078
 C         2.503993         0.530575         1.069330
 O         2.564821         1.732139         1.736138
 H         4.948281        -0.383193        -1.275843
 H         5.324218         1.201381        -0.497739
 H         5.404956        -0.286059         0.392181
 H         2.229562         2.299188        -0.632837
 H         2.184011         1.098515        -1.982895
 H         0.388025         0.418354         0.309482
 H         2.294967        -1.390733        -1.361437
 H         1.570638        -0.772472         2.632675
 H         3.387970        -0.850501         2.474272
 H         2.836056         2.476023         1.143641
