19
Iteration:  1648charge 0 multiplicity 1
 C         4.832266         0.132813        -0.414198
 C         3.355391         0.128939        -0.336603
 C         2.310454         0.874308        -1.220884
 C         1.442365         0.298873        -0.104737
 C         2.323941        -0.983926        -0.167082
 O         2.364839        -1.612504         1.236957
 C         2.610156        -0.436197         2.027177
 C         2.480221         0.647432         0.917374
 O         2.396752         1.908833         1.500998
 H         5.189587        -0.559850         0.323367
 H         5.249949        -0.144423        -1.319887
 H         5.217216         1.102793        -0.082709
 H         2.323321         2.017466        -1.269436
 H         2.150525         0.393035        -2.320693
 H         0.330935         0.577127         0.037613
 H         2.107477        -1.832645        -0.854868
 H         1.974067        -0.155280         2.846451
 H         3.646043        -0.404845         2.465018
 H         2.464768         2.659162         0.933709
