19
Iteration:  2461
 C         4.870337         0.172653        -0.448693
 C         3.292395         0.169342        -0.262271
 C         2.210622         1.019510        -1.120221
 C         1.399052         0.255322        -0.117032
 C         2.305623        -1.047992        -0.156452
 O         2.480817        -1.666643         1.094284
 C         2.404826        -0.526439         2.044418
 C         2.485268         0.636585         0.970563
 O         2.585086         1.969197         1.501769
 H         5.276194         0.951510        -1.079110
 H         5.374584         0.341437         0.599638
 H         5.153803        -0.789702        -0.841163
 H         2.252101         2.169254        -1.049158
 H         2.190604         0.673802        -2.096299
 H         0.376771         0.253322         0.098799
 H         2.320557        -1.788220        -1.096544
 H         1.394742        -0.542035         2.489018
 H         3.283813        -0.539392         2.747618
 H         2.807884         2.624315         0.744605
