19
Iteration:   105
 C         4.809228         0.100931        -0.370144
 C         3.313734         0.081637        -0.295592
 C         2.237226         0.827240        -1.105851
 C         1.319873         0.223344        -0.041702
 C         2.323254        -0.953817        -0.145078
 O         2.530930        -1.546147         1.146076
 C         2.444643        -0.387192         2.002263
 C         2.461771         0.650886         0.922207
 O         2.572212         2.000953         1.282109
 H         5.385390        -0.535307         0.391886
 H         5.421126        -0.138868        -1.282503
 H         5.070062         1.187067        -0.075361
 H         2.212636         1.971597        -1.249225
 H         1.988281         0.320978        -2.116494
 H         0.231858         0.268910         0.143826
 H         2.197620        -1.793043        -0.836666
 H         1.556709        -0.398823         2.720699
 H         3.363302        -0.477116         2.678882
 H         3.108791         2.152148         2.142193
