19
Iteration:  3914charge 0 multiplicity 1
 C         4.850162         0.235660        -0.285066
 C         3.286987         0.287917        -0.345769
 C         2.240993         1.233151        -1.051335
 C         1.447465         0.343399        -0.030007
 C         2.273934        -0.857092        -0.369161
 O         2.364891        -1.751969         0.860013
 C         2.474160        -0.745264         1.880877
 C         2.508596         0.545755         1.009047
 O         2.644765         1.725102         1.788289
 H         5.249270         0.665124        -1.200551
 H         5.305821         0.835957         0.545581
 H         5.273195        -0.742703        -0.436537
 H         2.214045         2.343886        -0.829923
 H         2.226431         1.244779        -2.080347
 H         0.373649         0.503285        -0.032098
 H         2.003819        -1.440225        -1.261140
 H         1.547133        -0.873972         2.438529
 H         3.374706        -0.730879         2.527451
 H         2.395332         2.434095         1.229237
