19
Iteration:   967charge 0 multiplicity 1
 C         4.741755         0.133132        -0.377542
 C         3.322255         0.169170        -0.339536
 C         2.238322         0.862903        -1.301173
 C         1.359479         0.213050        -0.017411
 C         2.390582        -0.981125        -0.143197
 O         2.502449        -1.600088         1.214182
 C         2.462655        -0.389357         1.980885
 C         2.446504         0.718241         0.943738
 O         2.610591         1.873087         1.543717
 H         5.186416        -0.636416         0.231496
 H         5.147323        -0.154249        -1.420460
 H         5.260972         1.089975        -0.132637
 H         2.254794         1.956348        -1.656420
 H         2.246710         0.390618        -2.243290
 H         0.278180         0.179637         0.060335
 H         2.279013        -1.730513        -0.905065
 H         1.407376        -0.295386         2.370324
 H         3.294161        -0.192718         2.725089
 H         2.406198         2.655675         0.879788
