19
Iteration:  2717
 C         4.812145         0.134979        -0.380403
 C         3.253083         0.254393        -0.306786
 C         2.146994         0.986045        -1.228567
 C         1.352331         0.295067        -0.123955
 C         2.333065        -0.991351        -0.217361
 O         2.541353        -1.660720         1.040042
 C         2.505259        -0.503538         1.899630
 C         2.418642         0.661227         0.965465
 O         2.611617         1.922397         1.686764
 H         5.047194        -0.919852        -0.030739
 H         5.269617         0.355084        -1.350956
 H         5.227655         0.741518         0.458649
 H         2.314495         2.039396        -1.158517
 H         2.020605         0.520989        -2.215974
 H         0.247846         0.331494         0.062687
 H         2.041880        -1.693724        -0.963642
 H         1.646630        -0.480780         2.603904
 H         3.529366        -0.401748         2.402941
 H         3.450672         1.629915         2.235661
