19
Iteration:  1819charge 0 multiplicity 1
 C         4.835162         0.087000        -0.440029
 C         3.364864         0.223077        -0.250105
 C         2.214786         0.823611        -1.281596
 C         1.368315         0.206838        -0.109744
 C         2.306251        -0.944880        -0.116137
 O         2.556449        -1.601616         1.139480
 C         2.394501        -0.458070         1.993234
 C         2.413299         0.710277         0.957571
 O         2.593073         1.962612         1.603722
 H         5.190710        -0.219170         0.541608
 H         5.016175        -0.807684        -1.129368
 H         5.453390         0.951357        -0.806561
 H         2.199641         2.017013        -1.443884
 H         2.195672         0.339300        -2.238885
 H         0.233079         0.261891        -0.057978
 H         2.474582        -1.679135        -0.964475
 H         1.487878        -0.481173         2.652734
 H         3.285014        -0.285547         2.560082
 H         2.413016         2.700691         0.940624
