19
Iteration:  3170charge 0 multiplicity 1
 C         4.762180         0.156830        -0.429261
 C         3.300021         0.329239        -0.320839
 C         2.238786         1.087722        -1.196983
 C         1.370182         0.362089        -0.061028
 C         2.227148        -0.904565        -0.268238
 O         2.468441        -1.639210         0.912840
 C         2.632801        -0.669481         1.868893
 C         2.511024         0.544614         0.996090
 O         2.561245         1.837121         1.834216
 H         5.338278         0.398924         0.480102
 H         4.874670        -0.948980        -0.519940
 H         5.269100         0.740404        -1.155486
 H         2.310461         2.255042        -1.139087
 H         2.093368         0.940699        -2.262304
 H         0.253648         0.316719         0.164221
 H         2.271909        -1.518772        -1.176493
 H         1.690756        -0.670286         2.476563
 H         3.628868        -0.738744         2.276821
 H         2.392878         1.529797         2.809252
