19
Iteration:  2363charge 0 multiplicity 1
 C         4.833822         0.135002        -0.444806
 C         3.344972         0.240625        -0.209538
 C         2.314255         0.886447        -1.191137
 C         1.365589         0.304554        -0.107592
 C         2.325178        -0.947270        -0.087499
 O         2.428456        -1.708142         1.088658
 C         2.546325        -0.539478         2.033788
 C         2.425735         0.711147         0.978524
 O         2.492836         1.989985         1.498665
 H         5.441091         0.625291         0.296770
 H         5.003620        -0.986429        -0.424081
 H         5.131957         0.304955        -1.454568
 H         2.258941         1.996780        -1.392552
 H         2.216586         0.404596        -2.189856
 H         0.336882         0.265082        -0.030750
 H         2.181982        -1.740980        -0.957029
 H         1.851030        -0.644174         2.895597
 H         3.641611        -0.582065         2.397624
 H         2.425540         2.704831         0.782858
