19
Iteration:  4758charge 0 multiplicity 1
 C         4.846504         0.263087        -0.408032
 C         3.294020         0.316169        -0.255605
 C         2.258428         1.187625        -0.970619
 C         1.286350         0.290111        -0.248491
 C         2.275142        -0.889994        -0.359821
 O         2.363448        -1.664581         0.874899
 C         2.657946        -0.717446         1.889617
 C         2.434695         0.493433         1.089247
 O         2.597087         1.753820         1.829257
 H         5.280480         0.856356        -1.227948
 H         5.366628         0.547020         0.563774
 H         5.026334        -0.827109        -0.513154
 H         2.171533         2.304887        -0.755349
 H         2.250074         1.231297        -2.058943
 H         0.147129         0.302752        -0.194268
 H         2.236726        -1.642506        -1.184691
 H         1.957534        -0.816125         2.687310
 H         3.722918        -0.811019         2.230895
 H         2.931852         2.448855         1.327422
