19
Iteration:  2909
 C         4.803444         0.247871        -0.497859
 C         3.330050         0.241956        -0.219745
 C         2.295122         1.040621        -1.071412
 C         1.462914         0.349622        -0.048897
 C         2.265115        -0.961007        -0.199158
 O         2.349554        -1.748240         0.957839
 C         2.508446        -0.659614         1.941335
 C         2.527934         0.617015         1.029126
 O         2.498337         1.876830         1.572136
 H         5.082393         1.148149        -1.109697
 H         5.118204         0.282165         0.585319
 H         5.281027        -0.640655        -0.978234
 H         2.367266         2.195077        -0.896978
 H         2.118210         1.006999        -2.123910
 H         0.368857         0.350958         0.205365
 H         2.242319        -1.480939        -1.193184
 H         1.797482        -0.630741         2.777169
 H         3.497614        -0.761012         2.483857
 H         3.338303         2.292450         1.541578
