19
Iteration:   640charge 0 multiplicity 1
 C         4.853553         0.287795        -0.457355
 C         3.312135         0.163505        -0.318896
 C         2.349798         0.789105        -1.296118
 C         1.393597         0.224484        -0.184592
 C         2.303654        -1.091825        -0.065526
 O         2.298438        -1.580988         1.203006
 C         2.597414        -0.464209         2.017619
 C         2.435248         0.694870         0.987127
 O         2.513413         1.958027         1.600736
 H         5.398368        -0.147158         0.369292
 H         5.189353        -0.383733        -1.300504
 H         5.228589         1.267636        -0.689493
 H         2.414480         1.799832        -1.436610
 H         2.241071         0.393700        -2.373707
 H         0.224967         0.248432         0.058139
 H         2.229514        -1.870738        -0.840657
 H         1.901685        -0.214947         2.852685
 H         3.615788        -0.623605         2.402164
 H         2.715877         2.599304         0.896872
