19
Iteration:  1418
 C         4.837483         0.136997        -0.446986
 C         3.318523         0.127973        -0.306048
 C         2.295941         0.795792        -1.276853
 C         1.397415         0.250679        -0.122256
 C         2.324930        -1.006159        -0.165853
 O         2.454123        -1.581611         1.196782
 C         2.567994        -0.396728         2.022399
 C         2.424287         0.691131         0.952783
 O         2.472982         1.976938         1.581440
 H         5.100372        -0.381465         0.535719
 H         5.157788        -0.500713        -1.298113
 H         5.395790         1.181663        -0.343903
 H         2.308380         1.983380        -1.288002
 H         2.053769         0.401066        -2.216619
 H         0.251600         0.145141        -0.052409
 H         2.172964        -1.838372        -0.927097
 H         1.680237        -0.289031         2.641717
 H         3.458661        -0.496394         2.697150
 H         2.689922         2.621289         0.893596
