19
Iteration:   975
 C         4.798500         0.137386        -0.354005
 C         3.253183         0.216524        -0.380621
 C         2.248909         0.851771        -1.295838
 C         1.394022         0.212336        -0.066713
 C         2.372710        -1.025290        -0.114841
 O         2.468479        -1.566406         1.193142
 C         2.475407        -0.401656         1.998153
 C         2.476595         0.654635         0.930255
 O         2.607494         1.926799         1.531288
 H         5.219550        -0.656105         0.279749
 H         5.028881         0.031295        -1.397659
 H         5.161100         1.039682         0.017834
 H         2.256620         1.966774        -1.320954
 H         2.168766         0.349053        -2.232452
 H         0.414740         0.081615         0.152811
 H         2.110162        -1.754882        -0.856203
 H         1.559875        -0.468709         2.624902
 H         3.346536        -0.358953         2.730101
 H         2.394825         2.602926         0.792299
