19
Iteration:  2369
 C         4.835864         0.170248        -0.429656
 C         3.373233         0.194968        -0.202065
 C         2.282819         0.862635        -1.235158
 C         1.422723         0.277822        -0.151178
 C         2.243593        -0.938239        -0.100428
 O         2.404179        -1.659869         1.110298
 C         2.607705        -0.512162         1.993463
 C         2.420165         0.730817         1.020506
 O         2.495091         1.945069         1.546789
 H         5.483588         0.662365         0.324596
 H         4.939106        -0.894136        -0.199924
 H         5.113319         0.261294        -1.530907
 H         2.307156         1.926137        -1.436622
 H         2.132913         0.405372        -2.308548
 H         0.270684         0.303842        -0.035811
 H         2.315427        -1.573386        -0.938484
 H         1.895443        -0.670330         2.816038
 H         3.619131        -0.582274         2.307844
 H         2.401845         2.514548         0.727095
