19
Iteration:  3894
 C         4.884653         0.219937        -0.427457
 C         3.371576         0.374697        -0.226122
 C         2.271445         1.193145        -0.899716
 C         1.391102         0.358165        -0.062090
 C         2.321650        -0.947316        -0.363458
 O         2.287772        -1.696611         0.782560
 C         2.476049        -0.746598         1.884737
 C         2.587585         0.542435         1.067846
 O         2.511868         1.782027         1.745381
 H         5.373486         0.337820        -1.362537
 H         5.424657         0.933699         0.286874
 H         5.050758        -0.864028        -0.270480
 H         2.329848         2.299349        -0.931932
 H         1.950388         1.139418        -1.930020
 H         0.290392         0.171960         0.261952
 H         2.475006        -1.498476        -1.266085
 H         1.644906        -0.678706         2.595752
 H         3.333450        -1.141315         2.413496
 H         2.781625         2.341934         1.045725
