19
Iteration:  2694charge 0 multiplicity 1
 C         4.746143         0.096281        -0.389567
 C         3.251270         0.219297        -0.353117
 C         2.245830         1.036510        -1.152392
 C         1.381585         0.296641        -0.028668
 C         2.261175        -0.904422        -0.171462
 O         2.571539        -1.609548         1.000212
 C         2.511640        -0.573089         1.970158
 C         2.563853         0.600986         1.023984
 O         2.518500         1.912210         1.498515
 H         5.082325        -0.977405        -0.411207
 H         5.171432         0.605094        -1.261257
 H         5.174038         0.464839         0.557621
 H         2.254312         2.158940        -0.994286
 H         2.001604         0.627393        -2.107835
 H         0.254066         0.142671         0.019412
 H         2.241742        -1.649742        -1.053775
 H         1.551893        -0.434839         2.510438
 H         3.420428        -0.653989         2.637002
 H         2.975071         1.958742         2.301743
