19
Iteration:  4038charge 0 multiplicity 1
 C         4.845430         0.127402        -0.473747
 C         3.347650         0.366607        -0.279865
 C         2.288417         1.186585        -1.016592
 C         1.386946         0.406669        -0.073774
 C         2.382615        -0.850082        -0.342832
 O         2.404634        -1.712486         0.753535
 C         2.467528        -0.678973         1.876896
 C         2.447235         0.601991         1.078186
 O         2.509394         1.687957         1.938553
 H         5.144315        -0.421586        -1.339604
 H         5.332397         1.100991        -0.612121
 H         5.279381        -0.423854         0.403144
 H         2.270562         2.307425        -0.915790
 H         2.278558         0.826761        -2.048934
 H         0.246998         0.310527        -0.020069
 H         2.433689        -1.473060        -1.201814
 H         1.497031        -0.885397         2.369500
 H         3.226547        -0.956534         2.586523
 H         2.776551         2.426678         1.464746
