19
Iteration:  1445
 C         4.812108         0.068494        -0.405360
 C         3.292641         0.199159        -0.213772
 C         2.247915         0.922155        -1.186729
 C         1.367613         0.218071        -0.099010
 C         2.385496        -1.009852        -0.127775
 O         2.522468        -1.598749         1.202152
 C         2.489486        -0.449938         1.992570
 C         2.415252         0.674535         0.941706
 O         2.559626         1.990840         1.397592
 H         5.058242        -0.729422         0.308385
 H         5.082022        -0.252797        -1.426287
 H         5.331412         0.920995        -0.083487
 H         2.132651         1.985259        -1.019166
 H         2.127808         0.643479        -2.342595
 H         0.336678         0.268776         0.130140
 H         2.526932        -1.773659        -0.891493
 H         1.501412        -0.382592         2.574164
 H         3.333402        -0.585375         2.673028
 H         2.238387         2.509928         0.639593
