19
Iteration:  3246charge 0 multiplicity 1
 C         4.856812         0.378283        -0.460980
 C         3.345936         0.233919        -0.347773
 C         2.275859         1.131845        -1.048909
 C         1.394044         0.349534         0.068048
 C         2.199615        -0.967737        -0.293460
 O         2.327699        -1.709547         0.849450
 C         2.556935        -0.739603         1.901410
 C         2.522682         0.554891         0.990636
 O         2.609279         1.747291         1.775109
 H         5.139803         1.424331        -0.595362
 H         5.409308         0.225224         0.486104
 H         5.327259        -0.298859        -1.149710
 H         2.497829         2.223141        -0.836424
 H         2.095015         0.899479        -2.066994
 H         0.275033         0.538395         0.286538
 H         1.876818        -1.398045        -1.220795
 H         1.766763        -0.688270         2.678820
 H         3.509542        -1.011098         2.375753
 H         2.390446         2.519586         1.314581
