19
Iteration:  3811charge 0 multiplicity 1
 C         4.874693         0.203151        -0.341024
 C         3.292729         0.362009        -0.278420
 C         2.234738         1.138526        -1.075876
 C         1.412853         0.446157        -0.075781
 C         2.370960        -0.827635        -0.385649
 O         2.331133        -1.748127         0.769431
 C         2.464656        -0.809833         1.893794
 C         2.473377         0.580587         1.039924
 O         2.680005         1.769957         1.867735
 H         5.231656        -0.675826        -0.960575
 H         5.542329         1.008546        -0.694916
 H         5.275073         0.194742         0.711257
 H         2.075184         2.160232        -0.818014
 H         2.059633         0.720110        -2.111983
 H         0.307121         0.472830         0.050996
 H         2.096856        -1.386423        -1.298416
 H         1.521870        -0.940796         2.520362
 H         3.285958        -1.177857         2.577631
 H         2.047169         2.501724         1.477415
