19
Iteration:  4680charge 0 multiplicity 1
 C         4.733048         0.235270        -0.473279
 C         3.314105         0.337091        -0.264819
 C         2.274767         1.269992        -0.888989
 C         1.360442         0.350055        -0.135383
 C         2.378195        -0.944221        -0.356075
 O         2.431889        -1.728345         0.808031
 C         2.451503        -0.698403         1.917722
 C         2.514104         0.538363         1.055644
 O         2.651127         1.725287         1.751384
 H         4.970049        -0.266858        -1.378199
 H         5.361623         1.181677        -0.381844
 H         5.235031        -0.402136         0.303983
 H         2.173486         2.314008        -0.408773
 H         2.105533         1.224269        -1.969269
 H         0.207408         0.387391        -0.191502
 H         2.588692        -1.507653        -1.294436
 H         1.602143        -0.756965         2.585331
 H         3.378794        -0.982048         2.445448
 H         1.845044         2.138040         2.049464
