19
Iteration:    75
 C         4.789359         0.082362        -0.435847
 C         3.319119         0.257729        -0.349189
 C         2.276819         0.824891        -1.267013
 C         1.293803         0.188325        -0.178753
 C         2.335790        -0.968533        -0.043655
 O         2.511469        -1.634787         1.226449
 C         2.441382        -0.496384         2.081629
 C         2.517968         0.732911         0.936917
 O         2.528043         2.040145         1.462029
 H         5.008448        -0.434918         0.400627
 H         5.150083        -0.517205        -1.303946
 H         5.397377         1.065511        -0.497234
 H         2.240939         2.017012        -1.360021
 H         2.145791         0.402023        -2.199357
 H         0.213139         0.139083        -0.001116
 H         2.304983        -1.749386        -0.799272
 H         1.474866        -0.291902         2.601804
 H         3.391660        -0.477706         2.603733
 H         3.449795         2.257228         1.585830
