19
Iteration:  3636
 C         4.791681         0.254774        -0.335818
 C         3.326554         0.245448        -0.209454
 C         2.328956         1.112960        -1.108305
 C         1.375904         0.398432        -0.049969
 C         2.211243        -0.866944        -0.387647
 O         2.341599        -1.701204         0.775469
 C         2.560492        -0.680606         1.906963
 C         2.487174         0.554120         1.016966
 O         2.643033         1.734096         1.853386
 H         5.257502         0.431760        -1.354022
 H         5.178387         1.032217         0.368638
 H         5.253797        -0.772968        -0.022016
 H         2.467900         2.223814        -0.988676
 H         2.255418         0.758727        -2.179611
 H         0.277167         0.576190         0.050316
 H         2.110293        -1.442354        -1.273882
 H         1.813828        -0.769476         2.730154
 H         3.598402        -0.888389         2.178089
 H         2.151388         2.443229         1.412142
