19
Iteration:   697charge 0 multiplicity 1
 C         4.803581         0.104600        -0.358683
 C         3.293622         0.135110        -0.305078
 C         2.212385         0.927709        -1.198254
 C         1.380430         0.244209        -0.129755
 C         2.314774        -0.991960        -0.161305
 O         2.589078        -1.636983         1.133581
 C         2.439397        -0.427486         2.074188
 C         2.455411         0.705948         0.984979
 O         2.566848         1.967359         1.465845
 H         5.204499        -0.236928         0.574002
 H         5.141882        -0.562320        -1.111396
 H         5.289370         1.099658        -0.549479
 H         2.212674         1.952589        -1.208458
 H         2.035538         0.428806        -2.218291
 H         0.230888         0.152289        -0.096706
 H         2.263505        -1.670313        -0.943560
 H         1.539161        -0.346692         2.721813
 H         3.346507        -0.572422         2.714796
 H         2.554602         2.439818         0.631445
