19
Iteration:  1386charge 0 multiplicity 1
 C         4.833514         0.232545        -0.442366
 C         3.324641         0.185291        -0.239746
 C         2.330925         0.724637        -1.265384
 C         1.400053         0.258809        -0.176609
 C         2.272825        -1.032071        -0.152395
 O         2.350574        -1.595994         1.204892
 C         2.630839        -0.401922         1.999156
 C         2.440551         0.701964         0.989101
 O         2.477850         1.934559         1.584221
 H         5.413299        -0.066751         0.485976
 H         5.102739        -0.576897        -1.159399
 H         5.287019         1.232501        -0.842585
 H         2.298623         1.891820        -1.532628
 H         2.173090         0.214815        -2.201934
 H         0.374725         0.177634        -0.028617
 H         2.168601        -1.671018        -1.091927
 H         1.869037        -0.295344         2.773052
 H         3.572018        -0.637436         2.508947
 H         2.781082         2.629251         0.908018
