19
Iteration:   580charge 0 multiplicity 1
 C         4.779532         0.077662        -0.341812
 C         3.269397         0.164239        -0.289764
 C         2.244521         0.909624        -1.153455
 C         1.391036         0.279581        -0.116514
 C         2.384176        -1.030805        -0.180259
 O         2.583235        -1.649407         1.207231
 C         2.448686        -0.452021         2.002824
 C         2.375642         0.638722         0.965186
 O         2.600966         2.034178         1.378296
 H         5.136251        -0.754848         0.313407
 H         5.096671        -0.021401        -1.367024
 H         5.247231         1.014261         0.113046
 H         2.095372         2.088158        -1.094553
 H         2.128037         0.476727        -2.092823
 H         0.381050         0.396349         0.011266
 H         2.249586        -1.859032        -0.913202
 H         1.507405        -0.381252         2.542828
 H         3.296880        -0.477805         2.691285
 H         2.310075         2.664098         0.767506
