19
Iteration:  1714charge 0 multiplicity 1
 C         4.832094         0.207876        -0.398755
 C         3.337352         0.173471        -0.383968
 C         2.261551         0.766236        -1.248141
 C         1.335199         0.258341        -0.123783
 C         2.226434        -1.014715        -0.144807
 O         2.533403        -1.530701         1.181152
 C         2.417416        -0.452734         2.095073
 C         2.525569         0.640212         0.920660
 O         2.633695         1.913947         1.535600
 H         5.171244        -0.584040         0.250661
 H         5.400389         0.293109        -1.240203
 H         4.904881         1.082294         0.250616
 H         2.141513         1.854584        -1.292601
 H         2.173306         0.361625        -2.367638
 H         0.223725         0.369315        -0.188757
 H         2.030931        -1.785152        -0.849842
 H         1.449181        -0.494521         2.599390
 H         3.169476        -0.474337         2.931717
 H         2.547467         2.645646         0.820283
