19
Iteration:   126charge 0 multiplicity 1
 C         4.753187         0.205272        -0.350174
 C         3.293181         0.202797        -0.276087
 C         2.292826         0.936220        -1.281585
 C         1.451001         0.235087        -0.117418
 C         2.223448        -1.117234        -0.098397
 O         2.412811        -1.699280         1.271365
 C         2.623974        -0.461064         2.037957
 C         2.465054         0.675300         0.940947
 O         2.552565         2.052254         1.264368
 H         5.209327        -0.761798         0.214720
 H         5.201026        -0.106163        -1.336361
 H         5.328018         1.126603        -0.006975
 H         2.012593         2.037171        -1.260000
 H         2.172505         0.591844        -2.402557
 H         0.369502         0.422470         0.083413
 H         1.982609        -1.977370        -0.752590
 H         1.744410        -0.355711         2.757054
 H         3.561993        -0.532548         2.696959
 H         2.841493         2.140453         2.137435
