19
Iteration:  2198
 C         4.799648         0.047067        -0.401070
 C         3.286090         0.244093        -0.318760
 C         2.230824         0.856183        -1.305003
 C         1.368262         0.254306        -0.079042
 C         2.362629        -0.996443        -0.105860
 O         2.579280        -1.616445         1.130562
 C         2.419938        -0.505020         2.067244
 C         2.466452         0.729633         1.009875
 O         2.565574         2.008202         1.498240
 H         4.993223        -0.983562        -0.226005
 H         5.177579         0.439173        -1.356876
 H         5.234863         0.677812         0.362248
 H         2.509046         1.944478        -1.553037
 H         2.092460         0.105128        -2.224707
 H         0.355521         0.287581         0.110605
 H         2.073089        -1.740528        -0.988595
 H         1.487037        -0.524951         2.556256
 H         3.178304        -0.421888         2.897397
 H         2.485183         2.740895         0.931803
