19
Iteration:  3157charge 0 multiplicity 1
 C         4.852416         0.176169        -0.394156
 C         3.290385         0.254249        -0.374168
 C         2.217077         1.114573        -1.119097
 C         1.433017         0.402888        -0.036136
 C         2.207315        -0.917455        -0.303362
 O         2.431807        -1.713075         0.913050
 C         2.649613        -0.583169         1.849731
 C         2.527004         0.660384         0.990657
 O         2.480438         1.744520         1.770572
 H         5.111234         0.383581         0.632720
 H         5.242762        -0.805914        -0.709722
 H         5.351622         0.829824        -1.147996
 H         2.283694         2.211197        -0.957597
 H         1.960916         0.683245        -2.069999
 H         0.274814         0.608510         0.223858
 H         1.838734        -1.558205        -1.084522
 H         1.974048        -0.585296         2.745184
 H         3.594404        -0.683803         2.421168
 H         2.750971         1.466646         2.611499
