19
Iteration:  1664
 C         4.846949         0.127851        -0.372753
 C         3.311271         0.163860        -0.261334
 C         2.254716         0.945111        -1.251076
 C         1.409253         0.181031        -0.160911
 C         2.310901        -1.054325        -0.130094
 O         2.380865        -1.552440         1.169004
 C         2.572549        -0.456642         2.068353
 C         2.488163         0.666884         1.032360
 O         2.490950         1.988059         1.439120
 H         5.383010        -0.756620         0.099476
 H         5.005561         0.056732        -1.533058
 H         5.257449         1.098715        -0.053774
 H         2.367065         2.036429        -1.270959
 H         2.138766         0.626370        -2.195608
 H         0.379407         0.008151        -0.010554
 H         2.312263        -1.774646        -0.952704
 H         1.753349        -0.606642         2.819008
 H         3.492550        -0.584109         2.630086
 H         2.733258         2.391408         0.624289
