19
Iteration:  2679
 C         4.825455         0.090367        -0.445580
 C         3.339185         0.233777        -0.232638
 C         2.207745         1.024541        -1.043355
 C         1.386414         0.342529         0.011435
 C         2.349250        -0.970518        -0.248548
 O         2.489801        -1.709317         1.017754
 C         2.554421        -0.586972         1.962070
 C         2.400534         0.650046         1.006798
 O         2.481874         1.982086         1.414139
 H         5.129460        -0.924512        -0.636205
 H         5.211503         0.707339        -1.269795
 H         5.434502         0.372893         0.425805
 H         2.402045         2.126588        -1.056160
 H         2.100188         0.795782        -2.115226
 H         0.343545         0.504627         0.292231
 H         1.988655        -1.678355        -1.179497
 H         1.777795        -0.819637         2.696945
 H         3.427294        -0.585748         2.546666
 H         2.981164         2.079426         2.228350
