19
Iteration:  1218
 C         4.819826         0.169620        -0.418520
 C         3.282910         0.137549        -0.327002
 C         2.327996         0.828826        -1.206516
 C         1.323507         0.160488        -0.070462
 C         2.405582        -1.024137        -0.172319
 O         2.496019        -1.556390         1.160504
 C         2.397588        -0.411049         2.074539
 C         2.405968         0.671184         1.020163
 O         2.626248         1.974922         1.448365
 H         5.188880        -0.701305         0.179802
 H         5.201559        -0.013701        -1.487184
 H         5.259887         1.182008        -0.102953
 H         2.201342         2.000818        -1.003639
 H         1.878795         0.483573        -2.092441
 H         0.273523         0.166996         0.039651
 H         2.265477        -1.735038        -1.001894
 H         1.492919        -0.161026         2.639756
 H         3.321760        -0.512896         2.651716
 H         2.508791         2.549586         0.615434
