19
Iteration:  2425
 C         4.822282         0.254485        -0.337030
 C         3.325622         0.202865        -0.241640
 C         2.249823         0.927323        -1.211058
 C         1.325611         0.258448        -0.136633
 C         2.257380        -1.005083        -0.172598
 O         2.414659        -1.647164         1.088849
 C         2.524392        -0.512176         2.034059
 C         2.478682         0.648164         0.972239
 O         2.652366         1.907166         1.509662
 H         5.272850         1.201538        -0.638529
 H         5.265434        -0.079939         0.617297
 H         5.179686        -0.461270        -1.148024
 H         2.187562         2.024678        -1.417729
 H         2.282487         0.192699        -2.188175
 H         0.228480         0.324568         0.038383
 H         2.130165        -1.755572        -1.032981
 H         1.717238        -0.553391         2.803648
 H         3.398225        -0.670597         2.627069
 H         2.564407         2.674453         0.852852
