19
Iteration:  4960
 C         4.921781         0.437326        -0.469598
 C         3.347540         0.379997        -0.309526
 C         2.227579         1.060370        -1.166492
 C         1.484615         0.337909        -0.015018
 C         2.211739        -0.932294        -0.320386
 O         2.324231        -1.777034         0.818746
 C         2.452379        -0.723231         1.865190
 C         2.529599         0.536971         1.041170
 O         2.612178         1.704266         1.967587
 H         5.189848        -0.217001        -1.288033
 H         5.169971         1.449314        -0.625027
 H         5.458494         0.181296         0.483743
 H         2.035220         2.147638        -0.944306
 H         1.903855         0.866442        -2.227403
 H         0.415211         0.468706         0.167344
 H         1.815593        -1.453459        -1.232513
 H         1.537973        -0.733483         2.506431
 H         3.323324        -0.887717         2.468126
 H         3.169150         2.508461         1.584410
