19
Iteration:  3699charge 0 multiplicity 1
 C         4.775986         0.199094        -0.470952
 C         3.277214         0.279132        -0.331973
 C         2.392075         1.230841        -1.042424
 C         1.402693         0.386249        -0.135141
 C         2.268499        -0.913014        -0.296492
 O         2.484135        -1.716392         0.817098
 C         2.414458        -0.682672         1.894615
 C         2.476174         0.596016         1.048371
 O         2.559693         1.658546         1.909808
 H         5.028025        -0.649091        -1.039269
 H         5.185068         1.170989        -0.693934
 H         5.074309         0.103219         0.574547
 H         2.509398         2.172440        -0.615185
 H         2.220951         1.211443        -2.152168
 H         0.273355         0.443927        -0.124731
 H         2.066670        -1.312718        -1.231723
 H         1.519035        -0.625035         2.555331
 H         3.354564        -0.781809         2.469744
 H         3.085637         2.376684         1.608904
