19
Iteration:  2033
 C         4.836065         0.172104        -0.429572
 C         3.339392         0.161350        -0.288473
 C         2.310645         0.881561        -1.199954
 C         1.444721         0.292083        -0.025018
 C         2.285121        -1.057038        -0.153535
 O         2.333564        -1.621788         1.152378
 C         2.612578        -0.421326         1.951948
 C         2.477591         0.691270         0.948941
 O         2.470931         1.930731         1.533459
 H         5.298843        -0.013977         0.572905
 H         5.125006        -0.684700        -1.110318
 H         5.296901         1.091485        -0.945139
 H         2.101048         1.901575        -1.361544
 H         2.259391         0.371478        -2.273199
 H         0.416554         0.236811         0.202252
 H         2.155064        -1.930984        -0.796549
 H         1.723276        -0.357227         2.579973
 H         3.506007        -0.519729         2.629177
 H         2.670891         2.669282         0.857472
