19
Iteration:  3418
 C         4.823603         0.311441        -0.399462
 C         3.282624         0.310988        -0.252510
 C         2.255889         1.137402        -1.120363
 C         1.427770         0.417619         0.024870
 C         2.303909        -0.859310        -0.356374
 O         2.355673        -1.742651         0.735974
 C         2.531890        -0.820266         1.887196
 C         2.452594         0.576282         1.103275
 O         2.587505         1.718243         1.870279
 H         5.128339        -0.591094        -0.947188
 H         5.214112         1.172556        -0.798328
 H         5.480910         0.240305         0.532276
 H         2.354486         2.241880        -1.297515
 H         2.222417         0.774086        -2.161235
 H         0.344351         0.707470         0.007453
 H         2.010901        -1.454030        -1.144762
 H         1.661569        -0.750450         2.520068
 H         3.412397        -0.830026         2.530277
 H         3.237011         2.324631         1.396633
