19
Iteration:  1739
 C         4.811435         0.179622        -0.370008
 C         3.335848         0.172823        -0.237511
 C         2.260549         0.794289        -1.309210
 C         1.354291         0.257734        -0.094836
 C         2.402865        -1.031888        -0.109150
 O         2.346224        -1.644923         1.158080
 C         2.581702        -0.414927         1.980343
 C         2.445197         0.672772         0.876505
 O         2.579313         1.964340         1.573621
 H         5.310930        -0.481984         0.342998
 H         5.099118         0.001874        -1.403898
 H         5.050205         1.158568        -0.118791
 H         2.155983         1.996184        -1.377428
 H         2.181647         0.348288        -2.271879
 H         0.363966         0.465820         0.016968
 H         2.156560        -1.787308        -0.857586
 H         1.822857        -0.307052         2.703803
 H         3.535155        -0.425486         2.472234
 H         2.316342         2.696280         0.933337
