19
Iteration:  4082charge 0 multiplicity 1
 C         4.822061         0.291613        -0.349907
 C         3.295238         0.252599        -0.259474
 C         2.358185         1.114668        -1.077511
 C         1.338582         0.432244        -0.070615
 C         2.321447        -0.854840        -0.319048
 O         2.378469        -1.679336         0.763733
 C         2.472738        -0.767759         1.809063
 C         2.424739         0.557099         1.025495
 O         2.660437         1.693118         1.893427
 H         5.181824        -0.555199        -0.927573
 H         5.202500         1.217336        -0.768419
 H         5.206045         0.140753         0.697355
 H         2.455434         2.222820        -0.809161
 H         2.224226         0.929595        -2.162133
 H         0.273747         0.826199         0.074909
 H         2.232095        -1.409548        -1.229577
 H         1.704719        -0.966984         2.610082
 H         3.454617        -1.005875         2.222955
 H         2.151420         2.408326         1.653917
