19
Iteration:  1405charge 0 multiplicity 1
 C         4.798951         0.124081        -0.405550
 C         3.328259         0.178772        -0.369816
 C         2.274624         0.792343        -1.332080
 C         1.422075         0.290234        -0.131417
 C         2.373909        -1.047183        -0.047343
 O         2.396128        -1.635822         1.203687
 C         2.539234        -0.447753         1.981924
 C         2.446265         0.728187         0.960817
 O         2.457814         1.976217         1.606536
 H         5.367580        -0.214276         0.457801
 H         5.265804        -0.383198        -1.271533
 H         5.035218         1.223385        -0.700594
 H         2.433460         1.892788        -1.465150
 H         2.282074         0.291554        -2.257099
 H         0.216793         0.525578         0.050930
 H         2.359038        -1.771883        -0.792569
 H         1.871666        -0.489446         2.814600
 H         3.608435        -0.294003         2.295015
 H         2.791269         2.691659         1.010438
