19
Iteration:  3572charge 0 multiplicity 1
 C         4.887258         0.181787        -0.400429
 C         3.311308         0.364774        -0.160923
 C         2.277828         1.141154        -1.028477
 C         1.390552         0.394846        -0.022583
 C         2.327067        -0.857001        -0.363320
 O         2.386704        -1.743482         0.756229
 C         2.401304        -0.857016         1.929025
 C         2.431340         0.581385         1.155521
 O         2.604471         1.856850         1.696377
 H         5.240198         0.877426        -1.193737
 H         5.549753         0.511741         0.350376
 H         4.980972        -0.927265        -0.645681
 H         2.319850         2.312297        -0.995624
 H         2.227150         0.944310        -2.112213
 H         0.309737         0.356489         0.216170
 H         2.251911        -1.449903        -1.290345
 H         1.635308        -1.042374         2.681565
 H         3.356259        -0.902136         2.442022
 H         3.048591         2.448060         0.976505
