19
Iteration:  2918
 C         4.847148         0.268066        -0.456380
 C         3.312940         0.181557        -0.357146
 C         2.276603         1.062958        -1.104065
 C         1.411512         0.293319        -0.012364
 C         2.254358        -0.994327        -0.199947
 O         2.361503        -1.765451         0.971560
 C         2.477350        -0.567129         1.894004
 C         2.542760         0.616476         0.988176
 O         2.531243         1.915310         1.702801
 H         5.066294         1.146805        -1.097379
 H         5.443927         0.587968         0.460625
 H         5.319944        -0.688247        -0.852751
 H         2.420102         2.191738        -0.843405
 H         2.208562         0.721004        -2.142447
 H         0.283763         0.457202         0.100161
 H         2.172148        -1.642699        -1.038468
 H         1.584616        -0.736794         2.477803
 H         3.435602        -0.705276         2.356805
 H         3.403055         2.278368         1.736589
