19
Iteration:  3588charge 0 multiplicity 1
 C         4.768473         0.186474        -0.347835
 C         3.338335         0.306139        -0.209696
 C         2.266202         1.138258        -1.041265
 C         1.367820         0.326760        -0.100825
 C         2.302409        -0.825606        -0.299770
 O         2.372499        -1.672709         0.797101
 C         2.500868        -0.723081         1.854414
 C         2.485179         0.589474         1.044432
 O         2.656567         1.752519         1.822552
 H         5.163010         0.705995        -1.230531
 H         5.377756         0.476655         0.595665
 H         5.167348        -0.778149        -0.586379
 H         2.223248         2.178215        -0.930793
 H         2.190869         0.721407        -2.042291
 H         0.280248         0.287995        -0.169358
 H         2.246724        -1.330068        -1.339559
 H         1.505169        -0.743950         2.321252
 H         3.413037        -0.979826         2.472214
 H         2.719546         2.545251         1.181939
