19
Iteration:  2684
 C         4.812940         0.084066        -0.442400
 C         3.306704         0.221472        -0.240246
 C         2.198830         1.035013        -1.062998
 C         1.387219         0.331191        -0.001993
 C         2.343511        -0.934514        -0.221138
 O         2.523437        -1.682650         1.013764
 C         2.529125        -0.579697         1.943951
 C         2.453853         0.637492         1.009108
 O         2.489121         1.950460         1.423229
 H         5.023831        -1.007555        -0.598068
 H         5.264269         0.710004        -1.224947
 H         5.238291         0.510876         0.496416
 H         2.530954         2.090716        -1.104348
 H         2.030602         0.742292        -2.111735
 H         0.288545         0.391258         0.223345
 H         2.005180        -1.559105        -1.011672
 H         1.666266        -0.716723         2.645530
 H         3.498753        -0.648311         2.581745
 H         2.967782         2.009560         2.264492
