19
Iteration:  4364charge 0 multiplicity 1
 C         4.819446         0.138641        -0.513416
 C         3.343364         0.354272        -0.299127
 C         2.373838         1.269386        -1.092598
 C         1.433633         0.393144        -0.063331
 C         2.334253        -0.887955        -0.370354
 O         2.322875        -1.717024         0.825122
 C         2.530303        -0.684126         1.918656
 C         2.551044         0.558505         1.035117
 O         2.392873         1.640948         1.969454
 H         5.108605        -0.518428        -1.323744
 H         5.314197         1.125251        -0.919312
 H         5.480784        -0.218235         0.346028
 H         2.595578         2.340069        -0.783254
 H         2.191894         1.148783        -2.150955
 H         0.346103         0.357667         0.188622
 H         2.287607        -1.503022        -1.198722
 H         1.702963        -0.753589         2.632254
 H         3.468313        -0.720052         2.492433
 H         2.515114         2.590183         1.602423
