19
Iteration:  2959
 C         4.744927         0.257086        -0.399363
 C         3.280593         0.353351        -0.234178
 C         2.264288         0.987328        -1.203370
 C         1.329259         0.368872        -0.069190
 C         2.392176        -0.950724        -0.254387
 O         2.430774        -1.717099         0.973897
 C         2.490802        -0.634030         1.907755
 C         2.417749         0.632941         0.992310
 O         2.679783         1.847302         1.685126
 H         4.848161         0.398502        -1.460204
 H         5.369622         0.988182         0.091217
 H         4.959542        -0.817125        -0.138517
 H         2.240768         2.091905        -1.372898
 H         2.218323         0.347214        -2.142920
 H         0.226170         0.341565         0.159567
 H         2.270787        -1.567590        -1.107326
 H         1.527998        -0.555018         2.539318
 H         3.415984        -0.688320         2.523795
 H         3.220792         1.548837         2.460319
