19
Iteration:  4930charge 0 multiplicity 1
 C         4.680034         0.233671        -0.421752
 C         3.240230         0.367697        -0.214296
 C         2.287791         1.186225        -1.160633
 C         1.361164         0.364402        -0.124329
 C         2.401914        -0.846381        -0.344494
 O         2.483009        -1.732001         0.853574
 C         2.519345        -0.696601         1.869542
 C         2.377793         0.540487         1.076481
 O         2.704312         1.654525         1.932799
 H         4.899853        -0.216247        -1.357047
 H         4.918081         1.345088        -0.626761
 H         5.265926        -0.318064         0.356100
 H         2.339648         2.275617        -0.890293
 H         2.011790         0.832167        -2.154080
 H         0.233083         0.268904        -0.281738
 H         2.262084        -1.388365        -1.297318
 H         1.632647        -0.838310         2.576571
 H         3.478820        -0.668925         2.443782
 H         2.651667         2.488022         1.465408
