19
Iteration:    93
 C         4.784070         0.076656        -0.373327
 C         3.312095         0.138461        -0.251935
 C         2.165476         0.844114        -1.216889
 C         1.459396         0.244940        -0.033097
 C         2.380595        -1.083477        -0.174299
 O         2.519661        -1.572444         1.163812
 C         2.455358        -0.389832         1.989667
 C         2.411995         0.715294         0.997754
 O         2.571035         2.031349         1.350572
 H         5.193283        -0.555809         0.551546
 H         5.003759        -0.288969        -1.408164
 H         5.127939         1.150124        -0.317155
 H         2.005124         1.940701        -1.280488
 H         2.091099         0.328152        -2.281772
 H         0.361570         0.305005         0.152497
 H         2.277059        -1.767138        -1.045549
 H         1.395361        -0.356922         2.381570
 H         3.254012        -0.218728         2.793248
 H         3.318041         1.918818         1.939611
