19
Iteration:    30
 C         4.848730         0.096677        -0.487403
 C         3.327974         0.164962        -0.296240
 C         2.322615         0.831325        -1.213717
 C         1.411661         0.255588        -0.085369
 C         2.322277        -1.005790        -0.089293
 O         2.290581        -1.626035         1.245580
 C         2.627656        -0.407816         2.002897
 C         2.486224         0.686255         0.956401
 O         2.475933         1.983351         1.462877
 H         5.278133        -0.275640         0.408784
 H         5.333101        -0.414645        -1.343129
 H         5.255344         1.159689        -0.577590
 H         2.400317         1.989291        -1.130490
 H         2.374529         0.444839        -2.212697
 H         0.309153         0.358083         0.003375
 H         2.281879        -1.771084        -0.886874
 H         1.715309        -0.357484         2.652496
 H         3.676931        -0.575578         2.370298
 H         2.042307         2.616059         0.915105
