19
Iteration:  3604charge 0 multiplicity 1
 C         4.827118         0.229802        -0.330260
 C         3.281325         0.282878        -0.337910
 C         2.284305         1.186365        -1.155110
 C         1.388958         0.374648        -0.108110
 C         2.267892        -0.926677        -0.416752
 O         2.395760        -1.711763         0.864325
 C         2.476567        -0.614040         1.911582
 C         2.478097         0.596704         0.995720
 O         2.669838         1.662964         1.924875
 H         5.204612         0.772025        -1.230925
 H         5.000443         0.516032         0.670966
 H         5.049552        -0.898368        -0.283928
 H         2.435741         2.302152        -0.864246
 H         2.193885         1.051597        -2.290013
 H         0.309467         0.478660         0.155928
 H         2.150017        -1.726728        -1.103690
 H         1.749496        -0.692984         2.740357
 H         3.472522        -0.720516         2.361927
 H         2.439525         2.478990         1.479517
