19
Iteration:  3821charge 0 multiplicity 1
 C         4.917216         0.204756        -0.372199
 C         3.403347         0.380110        -0.334642
 C         2.212640         1.171819        -1.126701
 C         1.370454         0.375450        -0.022492
 C         2.320538        -0.858319        -0.397838
 O         2.351704        -1.719353         0.791436
 C         2.429612        -0.768937         1.858791
 C         2.461171         0.601446         1.124887
 O         2.653884         1.712245         1.916206
 H         5.166677        -0.759311        -0.881029
 H         5.488308         1.101738        -0.694907
 H         5.139258        -0.113949         0.710644
 H         2.310430         2.246893        -1.331123
 H         2.048284         0.825875        -2.247357
 H         0.253763         0.486052         0.143044
 H         2.266555        -1.442124        -1.321739
 H         1.478818        -0.707261         2.477285
 H         3.357312        -0.963324         2.469117
 H         2.129108         2.502786         1.573121
