19
Iteration:  2939
 C         4.834915         0.271749        -0.494333
 C         3.313339         0.252281        -0.321139
 C         2.205509         0.953850        -1.249470
 C         1.422468         0.332031        -0.125890
 C         2.260324        -0.937260        -0.258165
 O         2.430493        -1.605888         1.006165
 C         2.448631        -0.568374         1.979282
 C         2.476412         0.603331         1.034146
 O         2.618825         1.778783         1.781804
 H         5.248562         0.962106        -1.228797
 H         5.120971         0.824064         0.449870
 H         5.256936        -0.771238        -0.368117
 H         2.290644         2.095014        -1.106096
 H         1.992796         0.510660        -2.265191
 H         0.274996         0.269323        -0.052954
 H         2.140081        -1.571264        -1.084146
 H         1.485508        -0.651830         2.573122
 H         3.368300        -0.720202         2.540225
 H         3.593278         1.741426         2.134665
