19
Iteration:  1146charge 0 multiplicity 1
 C         4.874658         0.175693        -0.411367
 C         3.304918         0.214022        -0.283964
 C         2.264871         0.868541        -1.179635
 C         1.405539         0.244497        -0.129688
 C         2.248849        -1.054933        -0.105146
 O         2.318703        -1.649348         1.196831
 C         2.674094        -0.460845         1.987478
 C         2.485291         0.670301         0.928335
 O         2.461811         1.987963         1.504734
 H         5.265661         0.008317         0.552825
 H         5.176453        -0.650183        -1.000919
 H         5.316819         1.080726        -0.874860
 H         2.472588         1.862004        -1.300990
 H         2.264769         0.442880        -2.198230
 H         0.279062         0.144763        -0.065259
 H         2.462234        -1.749703        -0.856969
 H         2.030909        -0.429332         2.865045
 H         3.708905        -0.314707         2.254877
 H         2.526929         2.645743         0.709915
