19
Iteration:  1822charge 0 multiplicity 1
 C         4.822817         0.082636        -0.452622
 C         3.353978         0.246405        -0.215337
 C         2.220457         0.823464        -1.265661
 C         1.339618         0.219312        -0.132085
 C         2.344435        -0.966958        -0.111059
 O         2.550328        -1.598241         1.140310
 C         2.390205        -0.459096         1.970750
 C         2.425871         0.701424         0.945443
 O         2.607090         1.966622         1.612633
 H         5.220340        -0.259055         0.564386
 H         5.016301        -0.788343        -1.091347
 H         5.467142         1.003289        -0.785668
 H         2.222856         1.855238        -1.464842
 H         2.070259         0.284851        -2.292789
 H         0.197287         0.270617        -0.100783
 H         2.435591        -1.605760        -0.942732
 H         1.497047        -0.477403         2.656904
 H         3.317895        -0.249889         2.580354
 H         2.376665         2.654711         0.939799
