19
Iteration:   700
 C         4.803993         0.109034        -0.340603
 C         3.290350         0.121155        -0.285741
 C         2.197862         0.924791        -1.231125
 C         1.370298         0.207906        -0.129558
 C         2.292771        -0.959125        -0.133536
 O         2.599659        -1.643200         1.133350
 C         2.463141        -0.414797         2.048093
 C         2.462757         0.699688         0.967228
 O         2.570496         1.976381         1.482386
 H         5.255978        -0.356245         0.582727
 H         5.084003        -0.575939        -1.137179
 H         5.257388         1.123503        -0.570266
 H         2.275682         2.062209        -1.180416
 H         2.084154         0.466621        -2.159582
 H         0.301474         0.190853        -0.130823
 H         2.252631        -1.668716        -1.013280
 H         1.506672        -0.355277         2.625327
 H         3.288188        -0.643948         2.781563
 H         2.506157         2.509833         0.592245
