19
Iteration:  2677charge 0 multiplicity 1
 C         4.832007         0.097725        -0.444447
 C         3.344981         0.235897        -0.239333
 C         2.225025         1.030904        -1.041813
 C         1.379280         0.344161         0.014257
 C         2.338976        -0.994072        -0.264524
 O         2.474566        -1.717049         1.016097
 C         2.557784        -0.592738         1.969890
 C         2.390868         0.649508         1.016243
 O         2.478560         1.999030         1.416031
 H         5.177126        -0.917839        -0.663548
 H         5.167051         0.705394        -1.301321
 H         5.523303         0.312418         0.410732
 H         2.286045         2.093716        -0.980991
 H         2.113372         0.764234        -2.159196
 H         0.387573         0.524343         0.283379
 H         2.087104        -1.621857        -1.101870
 H         1.797444        -0.825520         2.712501
 H         3.505433        -0.551767         2.552752
 H         2.975645         2.096612         2.175873
