19
Iteration:  3809
 C         4.857511         0.202092        -0.329134
 C         3.275245         0.348447        -0.259225
 C         2.244247         1.142206        -1.055566
 C         1.434052         0.449443        -0.083612
 C         2.359693        -0.828145        -0.362174
 O         2.332103        -1.746476         0.755983
 C         2.465742        -0.816116         1.888092
 C         2.486405         0.568500         1.022811
 O         2.681115         1.780088         1.850348
 H         5.208688        -0.619897        -0.938771
 H         5.478626         1.067098        -0.796908
 H         5.284404         0.184525         0.746816
 H         2.090058         2.179568        -0.762025
 H         2.058883         0.736493        -2.173025
 H         0.286687         0.426770         0.012615
 H         2.114028        -1.338003        -1.252570
 H         1.545373        -0.980017         2.534673
 H         3.295356        -1.132154         2.571989
 H         2.060967         2.482077         1.473432
