19
Iteration:  1149
 C         4.874043         0.176681        -0.395330
 C         3.345579         0.191720        -0.280415
 C         2.253944         0.841104        -1.214727
 C         1.384244         0.258326        -0.115429
 C         2.255167        -1.033093        -0.113640
 O         2.327258        -1.653123         1.187539
 C         2.677482        -0.448070         1.982020
 C         2.451232         0.689770         0.926896
 O         2.474439         1.994327         1.514072
 H         5.354130         0.026195         0.627513
 H         5.131758        -0.693551        -1.044380
 H         5.141429         1.115520        -0.845132
 H         2.493154         1.915420        -1.156732
 H         2.226305         0.393902        -2.240825
 H         0.238994         0.153353        -0.024058
 H         2.494980        -1.832610        -0.856212
 H         2.040030        -0.409671         2.824872
 H         3.714445        -0.446631         2.244679
 H         2.529810         2.549144         0.753207
