19
Iteration:  4403
 C         4.848917         0.205613        -0.351612
 C         3.317200         0.284161        -0.277388
 C         2.299179         1.204891        -1.174767
 C         1.326560         0.463752        -0.070066
 C         2.341777        -0.859110        -0.346012
 O         2.406031        -1.760054         0.759639
 C         2.519349        -0.751387         1.862968
 C         2.403013         0.603435         1.083709
 O         2.628431         1.737441         1.956465
 H         4.896056        -0.269278        -1.354065
 H         5.278903         1.141890        -0.330363
 H         5.260098        -0.454138         0.375507
 H         2.448282         2.281736        -1.183715
 H         2.269943         0.706009        -2.183804
 H         0.280462         0.423654         0.185565
 H         2.250494        -1.473309        -1.334635
 H         1.689366        -1.017479         2.548205
 H         3.475789        -0.789625         2.458674
 H         2.033631         2.337463         1.616782
