19
Iteration:  4258charge 0 multiplicity 1
 C         4.772704         0.329069        -0.283082
 C         3.241997         0.312756        -0.231152
 C         2.346691         1.163275        -1.095683
 C         1.296526         0.349867        -0.214524
 C         2.317454        -0.875220        -0.318219
 O         2.294066        -1.762800         0.827174
 C         2.569410        -0.718119         1.859402
 C         2.443252         0.582924         1.055968
 O         2.733582         1.701746         1.827252
 H         5.126232         0.657761        -1.254202
 H         5.244703         0.702563         0.548548
 H         4.999753        -0.721099        -0.266755
 H         2.348623         2.243202        -0.995762
 H         2.248204         0.941489        -2.155965
 H         0.222987         0.338665         0.075817
 H         2.567823        -1.512998        -1.167892
 H         1.844412        -0.745922         2.706522
 H         3.584560        -0.923132         2.240056
 H         2.613735         2.597652         1.500135
