19
Iteration:  2763charge 0 multiplicity 1
 C         4.841117         0.288230        -0.444896
 C         3.338598         0.191898        -0.330623
 C         2.334665         1.036540        -1.078759
 C         1.424670         0.315073        -0.025431
 C         2.222456        -1.018185        -0.215335
 O         2.277604        -1.757464         1.050023
 C         2.589966        -0.630903         1.956291
 C         2.581365         0.655494         1.008263
 O         2.465243         1.929909         1.518744
 H         5.375260        -0.039845         0.490756
 H         5.093555        -0.276835        -1.361126
 H         5.009211         1.398518        -0.631891
 H         2.376510         2.062263        -0.826879
 H         2.143236         0.819729        -2.167783
 H         0.358954         0.377706         0.095433
 H         2.104051        -1.619926        -0.973358
 H         1.777996        -0.689015         2.690816
 H         3.597899        -0.858043         2.468147
 H         3.376396         2.348364         1.652609
