19
Iteration:  1568charge 0 multiplicity 1
 C         4.886044         0.146870        -0.435371
 C         3.284881         0.088839        -0.322979
 C         2.262632         0.913688        -1.131559
 C         1.388028         0.227012        -0.107643
 C         2.282731        -1.042313        -0.140402
 O         2.513497        -1.628658         1.118710
 C         2.423311        -0.437558         2.082338
 C         2.516321         0.665589         1.008994
 O         2.554964         2.012877         1.445359
 H         5.131790        -0.109763         0.567818
 H         5.497414        -0.437427        -1.123401
 H         5.068016         1.190531        -0.510527
 H         2.284787         1.992934        -1.064724
 H         1.987073         0.647782        -2.335036
 H         0.237488         0.189663        -0.242939
 H         2.230793        -1.921802        -0.785058
 H         1.369756        -0.320536         2.518599
 H         3.207897        -0.261464         2.854392
 H         2.471902         2.480500         0.632809
