19
Iteration:  2479charge 0 multiplicity 1
 C         4.843034         0.145390        -0.446084
 C         3.329971         0.240320        -0.361494
 C         2.313067         0.942415        -1.175407
 C         1.375927         0.246222        -0.099633
 C         2.341823        -0.974119        -0.186374
 O         2.441934        -1.580802         1.170556
 C         2.489480        -0.450644         1.966978
 C         2.468904         0.613202         0.985828
 O         2.501602         1.817903         1.605078
 H         5.172123         0.830130        -1.232319
 H         5.451017         0.231883         0.419594
 H         5.242942        -0.880844        -0.644234
 H         2.201948         2.010847        -1.167807
 H         2.047922         0.778646        -2.370364
 H         0.270292         0.338132        -0.026898
 H         1.984764        -1.671707        -0.902522
 H         1.601058        -0.354427         2.620121
 H         3.356267        -0.534693         2.579469
 H         2.732400         2.646648         1.090782
