19
Iteration:   239charge 0 multiplicity 1
 C         4.768384         0.063890        -0.401988
 C         3.304783         0.168033        -0.289701
 C         2.236571         0.950520        -1.190608
 C         1.468917         0.228740        -0.072072
 C         2.371795        -1.085040        -0.124199
 O         2.461685        -1.648075         1.219682
 C         2.445395        -0.418916         2.018492
 C         2.470629         0.708530         0.968875
 O         2.490042         2.021190         1.359019
 H         5.099133        -0.370145         0.505224
 H         5.029864        -0.681720        -1.198340
 H         5.170748         1.152414        -0.618127
 H         2.324844         2.104211        -1.250388
 H         2.212467         0.607141        -2.209119
 H         0.404019         0.327225         0.049262
 H         2.459565        -1.838741        -0.865580
 H         1.619153        -0.413502         2.790534
 H         3.449432        -0.364363         2.545855
 H         3.302238         2.465111         1.061553
