19
Iteration:   998charge 0 multiplicity 1
 C         4.895037         0.199662        -0.326065
 C         3.290361         0.131371        -0.281097
 C         2.255556         0.875647        -1.177714
 C         1.296703         0.195488        -0.102659
 C         2.274139        -1.049553        -0.149898
 O         2.359964        -1.670735         1.192239
 C         2.649681        -0.445551         1.971799
 C         2.479160         0.718905         0.985115
 O         2.562982         2.018237         1.406870
 H         5.422326        -0.639916         0.104885
 H         5.104248         0.284537        -1.417511
 H         5.231156         1.019972         0.238416
 H         2.192252         2.012288        -1.215062
 H         2.266883         0.427481        -2.124002
 H         0.308095         0.280760        -0.197338
 H         2.191152        -1.724494        -0.980345
 H         1.846969        -0.532763         2.742632
 H         3.633145        -0.373773         2.570861
 H         2.448371         2.518403         0.637103
