19
Iteration:  4871
 C         4.812291         0.208030        -0.420003
 C         3.330522         0.408724        -0.304542
 C         2.303078         1.239551        -0.991498
 C         1.383442         0.380601         0.010621
 C         2.253914        -0.965607        -0.321800
 O         2.384756        -1.754478         0.832553
 C         2.656372        -0.795848         1.841297
 C         2.518189         0.558395         1.028567
 O         2.496866         1.804312         1.784774
 H         5.315105         0.502773        -1.378021
 H         5.249873         0.678982         0.416995
 H         5.056866        -0.820273        -0.195340
 H         2.400013         2.314730        -0.934960
 H         2.074401         1.069340        -2.085299
 H         0.376708         0.642040         0.235315
 H         2.114590        -1.629020        -1.179189
 H         1.920405        -0.883778         2.653310
 H         3.639676        -0.979954         2.280540
 H         1.756662         2.242379         1.172717
