19
Iteration:  2869charge 0 multiplicity 1
 C         4.775336         0.121579        -0.401183
 C         3.310119         0.254739        -0.277379
 C         2.260731         1.063000        -1.044182
 C         1.410800         0.303185        -0.078675
 C         2.342397        -0.917681        -0.264929
 O         2.404828        -1.731660         0.993260
 C         2.642248        -0.590416         1.890477
 C         2.425503         0.618990         1.000174
 O         2.463380         1.952737         1.582752
 H         5.427726         0.957577        -0.112169
 H         5.112948        -0.730439         0.164022
 H         5.006872        -0.148031        -1.395888
 H         2.253655         2.068820        -0.731148
 H         2.069135         0.982261        -2.135462
 H         0.376896         0.433689         0.084283
 H         2.037870        -1.704979        -1.056628
 H         1.878918        -0.558781         2.695673
 H         3.640122        -0.774280         2.323681
 H         3.393563         2.043391         2.024055
