19
Iteration:  3667
 C         4.847788         0.199960        -0.427617
 C         3.374150         0.301056        -0.168300
 C         2.229499         1.228198        -0.978126
 C         1.408118         0.374349        -0.050437
 C         2.347703        -0.855608        -0.350700
 O         2.307071        -1.790514         0.745183
 C         2.454199        -0.771302         1.953407
 C         2.504382         0.527219         1.087709
 O         2.593333         1.812447         1.724721
 H         5.233890        -0.170505        -1.377705
 H         5.424608         1.113392        -0.367808
 H         5.297768        -0.449574         0.391109
 H         2.258891         2.264671        -0.829282
 H         2.070939         1.246990        -2.084530
 H         0.275503         0.462854         0.004839
 H         2.342743        -1.209243        -1.310926
 H         1.735253        -0.797935         2.817679
 H         3.438160        -1.040675         2.394048
 H         2.624311         2.517271         1.027937
