19
Iteration:    47
 C         4.796996         0.126689        -0.456560
 C         3.362111         0.124375        -0.238001
 C         2.340535         0.837404        -1.222827
 C         1.434638         0.266991        -0.095819
 C         2.358157        -1.068831        -0.106977
 O         2.367196        -1.576481         1.175570
 C         2.523234        -0.382582         1.995944
 C         2.451033         0.695251         0.958265
 O         2.450568         1.980795         1.522065
 H         5.443975        -0.411134         0.395238
 H         4.782785        -0.508288        -1.344800
 H         5.212476         1.049133        -0.768699
 H         2.505667         1.844448        -1.385204
 H         1.980197         0.289122        -2.205988
 H         0.364117         0.250159         0.123345
 H         2.168310        -1.825773        -0.879077
 H         1.879973        -0.259102         2.870155
 H         3.604635        -0.243646         2.123354
 H         2.869804         2.503607         0.885658
