19
Iteration:    50charge 0 multiplicity 1
 C         4.805765         0.115558        -0.449252
 C         3.337681         0.131335        -0.226027
 C         2.320919         0.827504        -1.242221
 C         1.441010         0.259261        -0.118242
 C         2.340588        -1.063646        -0.123613
 O         2.383616        -1.562897         1.173892
 C         2.531464        -0.374709         2.021608
 C         2.449309         0.674956         0.982858
 O         2.451879         1.988272         1.526633
 H         5.465126        -0.401840         0.357358
 H         4.826505        -0.506713        -1.382148
 H         5.262079         1.083195        -0.819604
 H         2.482031         1.935549        -1.387572
 H         2.027946         0.259951        -2.238029
 H         0.339379         0.248996         0.033153
 H         2.151525        -1.858908        -0.881740
 H         1.760673        -0.322875         2.860416
 H         3.670147        -0.293524         2.172943
 H         3.021328         2.556403         0.921258
