19
Iteration:  2080charge 0 multiplicity 1
 C         4.736400         0.193928        -0.318193
 C         3.237601         0.199898        -0.285645
 C         2.242073         0.839143        -1.239662
 C         1.347408         0.168123        -0.095918
 C         2.320506        -1.000721        -0.140499
 O         2.520025        -1.621904         1.170140
 C         2.398382        -0.375608         1.932249
 C         2.454197         0.687225         0.898362
 O         2.755116         1.896897         1.561343
 H         5.149515        -0.050764         0.690748
 H         5.174905        -0.500351        -1.183037
 H         5.093003         1.187442        -0.654078
 H         2.309154         1.948907        -1.225788
 H         2.126518         0.444692        -2.331460
 H         0.241739         0.213849        -0.120313
 H         2.189482        -1.780480        -1.024665
 H         1.584548        -0.437721         2.681684
 H         3.377987        -0.263306         2.481154
 H         2.622116         2.636185         0.955465
