19
Iteration:  4224
 C         4.895511         0.251601        -0.416122
 C         3.378193         0.191317        -0.323052
 C         2.359174         1.200735        -0.947430
 C         1.398218         0.399593         0.041568
 C         2.246425        -0.850828        -0.325698
 O         2.340659        -1.719806         0.780192
 C         2.491692        -0.768595         1.905400
 C         2.538824         0.533628         1.035512
 O         2.449706         1.786264         1.708812
 H         5.345562         0.844440        -1.178377
 H         5.282821         0.698246         0.452531
 H         5.103231        -0.824242        -0.503263
 H         2.521343         2.261667        -0.694869
 H         2.094378         1.073515        -1.982420
 H         0.342902         0.466608         0.441593
 H         2.295501        -1.380762        -1.274848
 H         1.537016        -0.836111         2.498401
 H         3.373042        -0.904574         2.573641
 H         2.858532         2.384873         1.170872
