19
Iteration:  3596charge 0 multiplicity 1
 C         4.782685         0.169754        -0.338546
 C         3.262028         0.326271        -0.289971
 C         2.285431         1.128528        -1.086799
 C         1.391616         0.340524        -0.126751
 C         2.276255        -0.899818        -0.350714
 O         2.373247        -1.696372         0.800027
 C         2.500260        -0.627749         1.882961
 C         2.513854         0.577935         1.080269
 O         2.664489         1.700313         1.873363
 H         5.261167         0.864608        -1.056198
 H         5.251998         0.679300         0.539906
 H         5.133253        -0.834503        -0.468141
 H         2.325396         2.264009        -0.975947
 H         2.183661         0.996422        -2.144154
 H         0.315186         0.354817         0.034305
 H         2.300726        -1.444621        -1.395325
 H         1.636674        -0.670394         2.551010
 H         3.369812        -0.639972         2.549914
 H         2.575922         2.515275         1.321059
