19
Iteration:  1348charge 0 multiplicity 1
 C         4.812924         0.194793        -0.331176
 C         3.310885         0.213654        -0.330499
 C         2.219956         0.895206        -1.182850
 C         1.460506         0.213500        -0.075144
 C         2.341096        -1.034112        -0.156206
 O         2.428192        -1.699992         1.233907
 C         2.468019        -0.443365         1.971080
 C         2.428912         0.652769         0.993330
 O         2.628263         1.962948         1.390373
 H         5.395332        -0.081750         0.529750
 H         5.013237        -0.409386        -1.239989
 H         5.130543         1.188824        -0.678666
 H         2.436613         1.908919        -1.071327
 H         2.129746         0.668605        -2.277441
 H         0.228691         0.362223        -0.075941
 H         2.341326        -1.863888        -0.801286
 H         1.545790        -0.368515         2.595292
 H         3.284065        -0.139330         2.641932
 H         2.191809         2.556696         0.706506
