19
Iteration:  2626
 C         4.887717         0.224345        -0.480533
 C         3.377844         0.212357        -0.290421
 C         2.224247         0.979517        -1.250267
 C         1.401163         0.290946        -0.126096
 C         2.227926        -1.004677        -0.130460
 O         2.357042        -1.654452         1.074466
 C         2.549212        -0.498003         1.948632
 C         2.497920         0.654814         0.984043
 O         2.476062         1.844220         1.702703
 H         5.405244        -0.510208        -1.073662
 H         5.221578         1.186930        -0.902336
 H         5.374466         0.011471         0.457976
 H         2.589743         2.051523        -1.335768
 H         1.973470         0.495526        -2.153386
 H         0.271318         0.336391        -0.031918
 H         2.203413        -1.808182        -1.050559
 H         1.824017        -0.381786         2.798617
 H         3.575269        -0.685635         2.362563
 H         3.329565         2.299841         1.614501
