19
Iteration:    82charge 0 multiplicity 1
 C         4.769587         0.113735        -0.394557
 C         3.271705         0.244304        -0.308871
 C         2.198767         0.852439        -1.275452
 C         1.399767         0.208834        -0.110881
 C         2.366717        -1.022701        -0.087038
 O         2.527843        -1.639058         1.207646
 C         2.399913        -0.419001         2.017353
 C         2.495544         0.679861         0.932330
 O         2.565193         2.060001         1.429248
 H         5.191030        -0.614902         0.438476
 H         4.994684        -0.519080        -1.287174
 H         5.463492         0.979768        -0.423831
 H         2.345307         1.926982        -1.327875
 H         2.022815         0.367132        -2.335112
 H         0.303575         0.142905         0.025630
 H         2.273686        -1.862914        -0.802519
 H         1.509779        -0.488728         2.688200
 H         3.288314        -0.470205         2.735060
 H         3.395599         2.270414         1.795875
