19
Iteration:  2433
 C         4.794256         0.238848        -0.387965
 C         3.237548         0.213352        -0.203916
 C         2.269978         0.874434        -1.149189
 C         1.392295         0.253136        -0.096649
 C         2.289017        -0.938186        -0.123716
 O         2.427281        -1.662487         1.041290
 C         2.472616        -0.548237         2.009365
 C         2.457240         0.637947         1.017659
 O         2.671152         1.943489         1.451882
 H         5.203589         1.230350        -0.724706
 H         5.241604        -0.008167         0.563639
 H         5.253702        -0.618709        -0.932195
 H         2.357708         1.936957        -1.328162
 H         2.273802         0.402097        -2.271000
 H         0.262956         0.114882         0.105639
 H         2.396675        -1.424728        -1.018302
 H         1.568117        -0.621190         2.611191
 H         3.405393        -0.578098         2.587896
 H         2.608594         2.639641         0.706172
