19
Iteration:   428charge 0 multiplicity 1
 C         4.840095         0.128420        -0.324616
 C         3.327290         0.141316        -0.280300
 C         2.289925         0.815559        -1.183384
 C         1.396559         0.289572        -0.119379
 C         2.321319        -1.105089        -0.167313
 O         2.428678        -1.631172         1.135003
 C         2.530617        -0.375175         1.997211
 C         2.381331         0.693821         0.917961
 O         2.542497         2.032173         1.498803
 H         5.253813        -0.353865         0.609737
 H         5.199704        -0.565030        -1.070098
 H         5.406961         1.097465        -0.506416
 H         2.212547         1.919877        -1.223436
 H         2.064199         0.319768        -2.157581
 H         0.323304         0.257826        -0.002366
 H         2.134194        -1.904909        -0.998293
 H         1.783676        -0.404744         2.807501
 H         3.566220        -0.236013         2.390468
 H         2.571940         2.740298         0.904330
