19
Iteration:   834charge 0 multiplicity 1
 C         4.772105         0.159857        -0.364728
 C         3.310526         0.216984        -0.321127
 C         2.164696         0.774521        -1.265823
 C         1.382683         0.263744        -0.138073
 C         2.356753        -1.060838        -0.130154
 O         2.506107        -1.545438         1.167790
 C         2.439364        -0.422489         1.987606
 C         2.449258         0.667710         0.964535
 O         2.677839         1.947260         1.536423
 H         5.119266        -0.512287         0.445654
 H         5.236469        -0.041532        -1.389734
 H         5.086246         1.112263         0.026173
 H         2.279779         1.935693        -1.294867
 H         1.861556         0.358138        -2.145902
 H         0.355842         0.189575         0.026802
 H         2.299979        -1.907597        -0.845101
 H         1.505015        -0.673238         2.510358
 H         3.274183        -0.464463         2.732307
 H         2.644059         2.729225         0.856826
