19
Iteration:  3225
 C         4.761299         0.284924        -0.489098
 C         3.343415         0.193131        -0.327530
 C         2.238657         1.240416        -0.968864
 C         1.455445         0.386669         0.000983
 C         2.221107        -0.914716        -0.316631
 O         2.442449        -1.748633         0.884177
 C         2.516400        -0.713576         1.924573
 C         2.554422         0.484278         1.036573
 O         2.618170         1.808613         1.683127
 H         5.012519         1.268288        -0.079432
 H         5.260538        -0.334588         0.260905
 H         5.245654         0.024757        -1.355701
 H         2.393176         2.289721        -0.601426
 H         2.023922         1.107415        -2.006743
 H         0.371319         0.379362         0.197227
 H         2.041905        -1.524727        -1.212575
 H         1.581517        -0.694377         2.492534
 H         3.218551        -1.012249         2.648656
 H         1.904667         2.339082         1.229762
