19
Iteration:  3770
 C         4.826976         0.267560        -0.314551
 C         3.370860         0.183854        -0.331121
 C         2.336595         1.304479        -0.945924
 C         1.385987         0.440716        -0.133412
 C         2.202780        -0.880812        -0.308446
 O         2.334837        -1.719789         0.814621
 C         2.549319        -0.765898         1.899219
 C         2.437181         0.508882         1.024617
 O         2.630914         1.671065         1.728316
 H         5.257296        -0.649831        -0.835231
 H         5.123786         1.199582        -0.799061
 H         5.254365         0.467532         0.673869
 H         2.541175         2.296768        -0.457167
 H         2.250975         1.404110        -1.979844
 H         0.326230         0.489792        -0.124481
 H         2.043435        -1.526981        -1.240726
 H         1.839651        -0.939702         2.694540
 H         3.589337        -0.704422         2.278788
 H         2.107547         2.367684         1.387320
