19
Iteration:  4102
 C         4.767756         0.304488        -0.300723
 C         3.253102         0.296052        -0.155469
 C         2.425241         1.264616        -0.993364
 C         1.394785         0.368656        -0.144816
 C         2.253313        -0.865130        -0.391299
 O         2.284101        -1.794994         0.732797
 C         2.565798        -0.805720         1.889724
 C         2.425328         0.501192         1.127762
 O         2.724281         1.770745         1.757291
 H         4.999322        -0.464826        -0.999524
 H         4.986015         1.311920        -0.744427
 H         5.432433         0.236979         0.636949
 H         2.213330         2.421506        -0.992349
 H         2.411559         0.871102        -2.018712
 H         0.267592         0.151749        -0.276547
 H         2.133810        -1.368515        -1.302363
 H         1.757059        -0.850363         2.674399
 H         3.628894        -0.830126         2.369181
 H         2.117545         2.472575         1.404971
