19
Iteration:   340
 C         4.822869         0.113328        -0.472573
 C         3.343085         0.198667        -0.247703
 C         2.290707         0.932209        -1.218736
 C         1.382159         0.300728        -0.082816
 C         2.383439        -1.048016        -0.011703
 O         2.486542        -1.616566         1.225189
 C         2.344657        -0.494078         2.036681
 C         2.446756         0.664088         0.932593
 O         2.613911         1.990762         1.331416
 H         5.077694        -0.704676         0.189044
 H         5.090024        -0.035416        -1.491921
 H         5.175987         1.099467        -0.020927
 H         2.370253         2.012923        -1.250458
 H         2.153593         0.449536        -2.211727
 H         0.352123         0.173303         0.260644
 H         2.479872        -1.961951        -0.676124
 H         1.372652        -0.528786         2.571626
 H         3.181319        -0.564292         2.787756
 H         2.086355         2.420625         0.682634
