19
Iteration:  1229
 C         4.813784         0.139726        -0.451103
 C         3.314111         0.198337        -0.260408
 C         2.265231         0.871190        -1.192164
 C         1.387953         0.190514        -0.067836
 C         2.315971        -1.007050        -0.099246
 O         2.453462        -1.599946         1.182881
 C         2.491684        -0.452082         2.072014
 C         2.478756         0.659603         0.953918
 O         2.536444         1.972540         1.397730
 H         5.333771        -0.698577         0.065903
 H         5.062036         0.146200        -1.558313
 H         5.243927         1.052398         0.086203
 H         2.460784         2.040081        -1.303641
 H         2.386484         0.585403        -2.225783
 H         0.336743         0.215084        -0.042398
 H         2.267565        -1.760676        -0.885073
 H         1.545165        -0.598525         2.591216
 H         3.239441        -0.344443         2.858434
 H         2.577388         2.543865         0.641389
