19
Iteration:  1310
 C         4.777374         0.096797        -0.326946
 C         3.296940         0.159747        -0.292201
 C         2.287623         0.825654        -1.295954
 C         1.338565         0.250549        -0.049420
 C         2.353794        -1.010584        -0.127697
 O         2.540730        -1.593850         1.166436
 C         2.475543        -0.433989         1.996933
 C         2.447095         0.672075         0.941211
 O         2.592077         2.026583         1.485675
 H         5.147886        -0.693174         0.340975
 H         5.199246        -0.078315        -1.297435
 H         5.164214         1.084175        -0.036845
 H         2.251907         1.936666        -1.373973
 H         2.025321         0.290785        -2.201865
 H         0.323036         0.317371        -0.138550
 H         2.095814        -1.715642        -0.976923
 H         1.604493        -0.598336         2.667316
 H         3.455072        -0.299812         2.493232
 H         1.997094         2.459018         0.918877
