19
Iteration:   775charge 0 multiplicity 1
 C         4.814591         0.169661        -0.456663
 C         3.332363         0.170053        -0.251180
 C         2.361053         0.832365        -1.163773
 C         1.459052         0.281902        -0.081979
 C         2.328840        -1.044794        -0.150052
 O         2.282063        -1.717940         1.182007
 C         2.671089        -0.368721         2.038009
 C         2.429079         0.720646         0.944187
 O         2.454175         1.974347         1.460283
 H         5.356172        -0.736602        -0.194837
 H         5.082807         0.421074        -1.431737
 H         5.142621         1.119169         0.090460
 H         2.455996         1.912982        -1.213895
 H         2.052922         0.473016        -2.246688
 H         0.350380         0.077819         0.008110
 H         2.083071        -1.855939        -0.896093
 H         1.856256        -0.419650         2.782005
 H         3.716600        -0.339868         2.587768
 H         2.467696         2.456097         0.676869
