19
Iteration:  2516
 C         4.863046         0.137666        -0.406710
 C         3.327261         0.259889        -0.273303
 C         2.339097         0.831538        -1.248564
 C         1.373648         0.293073        -0.124861
 C         2.284971        -0.933208        -0.177757
 O         2.347063        -1.635817         1.072181
 C         2.685140        -0.614450         1.965313
 C         2.413487         0.730058         0.973770
 O         2.490647         1.983684         1.703460
 H         5.138198         0.567983        -1.349626
 H         5.475596         0.459796         0.499826
 H         4.923422        -0.926923        -0.586026
 H         2.235078         1.981425        -1.556142
 H         2.393570         0.252055        -2.151503
 H         0.305532         0.271156        -0.170362
 H         1.937845        -1.682086        -1.057584
 H         2.050022        -0.572423         2.877456
 H         3.718980        -0.664487         2.426831
 H         2.079413         2.643638         1.145974
