19
Iteration:  4774charge 0 multiplicity 1
 C         4.703678         0.307938        -0.376175
 C         3.252853         0.314836        -0.167481
 C         2.258876         1.282221        -1.024184
 C         1.436516         0.291907        -0.117566
 C         2.297460        -0.945696        -0.331365
 O         2.382560        -1.776813         0.837713
 C         2.525855        -0.783385         1.915043
 C         2.489395         0.566061         1.083083
 O         2.644688         1.764534         1.704765
 H         4.839597         1.045999        -1.181740
 H         5.334656         0.621454         0.421481
 H         5.289322        -0.520461        -0.767239
 H         2.239130         2.339075        -0.725150
 H         2.284825         1.137140        -2.143968
 H         0.381773         0.353892        -0.066322
 H         2.339675        -1.522327        -1.242506
 H         1.717506        -0.868911         2.713464
 H         3.494463        -0.854079         2.440922
 H         3.165277         2.390905         1.072319
