19
Iteration:  4778
 C         4.696460         0.322914        -0.393789
 C         3.259118         0.321475        -0.192957
 C         2.256156         1.240477        -1.008530
 C         1.447159         0.294232        -0.069254
 C         2.323748        -0.912763        -0.305726
 O         2.380642        -1.799656         0.819292
 C         2.490035        -0.779083         1.919487
 C         2.479812         0.533087         1.075669
 O         2.660226         1.778620         1.676879
 H         4.879325         1.111105        -1.121583
 H         5.324106         0.697538         0.520084
 H         5.305731        -0.552413        -0.770642
 H         2.394806         2.336025        -0.810500
 H         2.274470         1.178517        -2.071619
 H         0.299412         0.348417        -0.024428
 H         2.273697        -1.480258        -1.263631
 H         1.670382        -0.860546         2.615476
 H         3.458809        -0.789995         2.435154
 H         3.134017         2.434685         1.229128
