19
Iteration:  1734
 C         4.840521         0.221869        -0.351772
 C         3.319716         0.148044        -0.275734
 C         2.250842         0.830197        -1.310208
 C         1.412726         0.239829        -0.074824
 C         2.309269        -1.038456        -0.099989
 O         2.403045        -1.650619         1.163270
 C         2.530883        -0.380606         1.921532
 C         2.438857         0.659555         0.897533
 O         2.591020         1.948102         1.581037
 H         5.308737        -0.571552         0.259236
 H         5.110814        -0.025644        -1.397763
 H         5.239359         1.247170         0.018247
 H         2.326979         1.835603        -1.477234
 H         2.080036         0.251896        -2.328206
 H         0.261263         0.441297         0.095814
 H         2.082388        -1.876058        -0.776841
 H         1.698925        -0.186588         2.683501
 H         3.486256        -0.377235         2.530879
 H         2.371629         2.678605         0.984678
