19
Iteration:  4026
 C         4.778697         0.180309        -0.504209
 C         3.322630         0.307415        -0.153023
 C         2.394559         1.204414        -0.975490
 C         1.433694         0.340831        -0.085222
 C         2.343153        -0.812493        -0.403764
 O         2.446432        -1.743857         0.797572
 C         2.445215        -0.743707         1.854469
 C         2.328652         0.567598         1.128715
 O         2.531691         1.752122         1.870596
 H         4.791780        -0.260837        -1.465432
 H         5.385843         1.105034        -0.388679
 H         5.243841        -0.530755         0.251085
 H         2.689184         2.316739        -0.951587
 H         2.268371         0.984652        -2.040514
 H         0.282361         0.339815        -0.200687
 H         2.194014        -1.190684        -1.377228
 H         1.654937        -0.921727         2.619179
 H         3.472193        -0.608481         2.278049
 H         2.906745         2.437902         1.230470
