19
Iteration:  3885
 C         4.883528         0.215300        -0.442623
 C         3.342197         0.315328        -0.223104
 C         2.281109         1.167829        -0.911741
 C         1.419266         0.292070        -0.019566
 C         2.342405        -0.831955        -0.387206
 O         2.273035        -1.684289         0.785874
 C         2.507519        -0.741038         1.874328
 C         2.530372         0.530675         1.099235
 O         2.494245         1.789313         1.751297
 H         5.015797         0.286943        -1.512802
 H         5.603672         0.880090         0.093248
 H         5.271423        -0.800664        -0.110318
 H         2.330246         2.244254        -0.654351
 H         2.289736         0.888993        -2.038053
 H         0.309829         0.519454        -0.061465
 H         2.409335        -1.423569        -1.275769
 H         1.611146        -0.851936         2.501231
 H         3.445453        -0.893474         2.403654
 H         2.853696         2.431514         1.165192
