19
Iteration:  3773charge 0 multiplicity 1
 C         4.846604         0.277526        -0.322893
 C         3.345229         0.196054        -0.321661
 C         2.366343         1.286705        -0.923529
 C         1.365395         0.443572        -0.104443
 C         2.205132        -0.889252        -0.345940
 O         2.337386        -1.717442         0.816939
 C         2.561355        -0.776792         1.922761
 C         2.419723         0.480336         0.994144
 O         2.638702         1.686844         1.721491
 H         5.248909        -0.616888        -0.758114
 H         5.067870         1.232220        -0.894755
 H         5.181353         0.329816         0.727065
 H         2.546877         2.340985        -0.494328
 H         2.347128         1.420989        -2.034904
 H         0.278529         0.470529        -0.091889
 H         2.034485        -1.464318        -1.269365
 H         1.808703        -0.926133         2.676249
 H         3.552770        -0.616929         2.301635
 H         2.102085         2.430697         1.411960
