19
Iteration:  4740charge 0 multiplicity 1
 C         4.819139         0.150774        -0.355483
 C         3.311375         0.286131        -0.309520
 C         2.249072         1.188213        -1.104644
 C         1.406361         0.340204        -0.004900
 C         2.315144        -0.866529        -0.339481
 O         2.368315        -1.688215         0.825318
 C         2.651505        -0.629157         1.811904
 C         2.449966         0.646293         1.004504
 O         2.516529         1.661130         1.915482
 H         5.142321         0.739835        -1.246560
 H         5.196743         0.684427         0.463824
 H         5.124506        -0.873042        -0.380164
 H         2.234270         2.268479        -0.940311
 H         2.027821         0.938321        -2.190429
 H         0.371644         0.179326         0.061779
 H         2.254279        -1.369473        -1.288015
 H         2.026254        -0.836526         2.728695
 H         3.711395        -0.787486         2.058797
 H         2.422237         2.436164         1.429905
