19
Iteration:  1751
 C         4.781702         0.172279        -0.396999
 C         3.284663         0.207468        -0.285397
 C         2.279829         0.786541        -1.215499
 C         1.383441         0.254743        -0.189801
 C         2.381042        -1.021603        -0.144391
 O         2.303011        -1.584227         1.177245
 C         2.626581        -0.497885         2.038315
 C         2.460345         0.717902         1.019242
 O         2.546428         1.971876         1.511427
 H         5.277127        -0.441612         0.363855
 H         5.150313        -0.275948        -1.388245
 H         5.231683         1.133176        -0.338346
 H         2.344831         2.002931        -1.361889
 H         2.270369         0.359329        -2.158266
 H         0.340942         0.131142        -0.138528
 H         2.586427        -1.717976        -1.024766
 H         2.007144        -0.555684         2.923942
 H         3.652561        -0.572481         2.338594
 H         2.271166         2.650097         0.841871
