19
Iteration:   689
 C         4.803489         0.101777        -0.408693
 C         3.309162         0.222140        -0.334956
 C         2.252671         0.874633        -1.158465
 C         1.380016         0.300206        -0.085798
 C         2.383906        -1.061172        -0.193164
 O         2.517179        -1.590581         1.147285
 C         2.431415        -0.469757         2.077458
 C         2.418265         0.632548         1.019195
 O         2.558699         1.962882         1.431641
 H         5.110299        -0.097369         0.655826
 H         5.275399        -0.585461        -1.092390
 H         5.275893         1.132401        -0.574327
 H         2.160062         2.017683        -1.297154
 H         2.061826         0.579265        -2.145815
 H         0.322212         0.221083         0.036523
 H         2.233475        -1.911663        -0.923042
 H         1.594342        -0.541717         2.806612
 H         3.415748        -0.233834         2.575601
 H         2.694772         2.603472         0.684676
