19
Iteration:  3222
 C         4.749121         0.272222        -0.489655
 C         3.332812         0.209317        -0.312599
 C         2.242135         1.255269        -0.972617
 C         1.446260         0.369429         0.002281
 C         2.249244        -0.926982        -0.312094
 O         2.450931        -1.740108         0.878756
 C         2.505913        -0.732334         1.946105
 C         2.538753         0.504802         1.018746
 O         2.626852         1.806474         1.674079
 H         5.059271         1.209445        -0.001459
 H         5.272805        -0.401650         0.234737
 H         5.262099         0.031956        -1.477009
 H         2.390774         2.302206        -0.625124
 H         2.069572         1.098035        -2.028840
 H         0.265225         0.380270         0.207780
 H         2.044251        -1.443187        -1.234664
 H         1.529374        -0.665566         2.509704
 H         3.315318        -1.040150         2.682019
 H         1.888479         2.382019         1.295504
