19
Iteration:  4687charge 0 multiplicity 1
 C         4.778598         0.202284        -0.457043
 C         3.291529         0.344990        -0.226764
 C         2.249111         1.206553        -0.918959
 C         1.376310         0.353075        -0.059195
 C         2.383945        -0.944957        -0.435731
 O         2.461505        -1.691359         0.810734
 C         2.471559        -0.698641         1.867049
 C         2.440456         0.555883         1.070884
 O         2.645990         1.757177         1.802230
 H         4.892321        -0.146760        -1.532746
 H         5.297784         1.146613        -0.323215
 H         5.128129        -0.558933         0.278506
 H         2.460010         2.233278        -0.744188
 H         2.251598         1.120979        -2.000699
 H         0.326314         0.543303        -0.043797
 H         2.328444        -1.518291        -1.351597
 H         1.606005        -1.011874         2.499229
 H         3.391897        -0.847753         2.417826
 H         1.809688         2.097594         1.884623
