19
Iteration:  2395charge 0 multiplicity 1
 C         4.789422         0.204518        -0.360041
 C         3.363107         0.080470        -0.389802
 C         2.283710         0.895547        -1.245584
 C         1.357391         0.238046        -0.122182
 C         2.325091        -1.006380        -0.139401
 O         2.313467        -1.605442         1.144663
 C         2.638068        -0.388040         1.955604
 C         2.485075         0.746906         0.862658
 O         2.535340         1.846883         1.669095
 H         5.088540         1.110591         0.137064
 H         5.072957        -0.593129         0.403252
 H         5.241143         0.062219        -1.326597
 H         2.347612         2.006414        -1.398303
 H         2.207539         0.522222        -2.120915
 H         0.342356         0.208537         0.108895
 H         2.156466        -1.876905        -0.930436
 H         1.962785        -0.342460         2.844218
 H         3.713831        -0.585525         2.274988
 H         2.481960         2.715090         1.228951
