19
Iteration:  1710
 C         4.807965         0.202452        -0.389984
 C         3.322485         0.155189        -0.358175
 C         2.245857         0.795457        -1.269593
 C         1.340962         0.233816        -0.125747
 C         2.276477        -0.973839        -0.128072
 O         2.541395        -1.544889         1.164523
 C         2.414188        -0.457413         2.099443
 C         2.497873         0.619588         0.936917
 O         2.647278         1.931120         1.512548
 H         5.207761        -0.648620         0.213498
 H         5.441290         0.293890        -1.383349
 H         4.910418         1.118800         0.301477
 H         2.136566         1.855646        -1.308193
 H         2.198460         0.396273        -2.298858
 H         0.195748         0.478733        -0.180365
 H         2.039988        -1.901955        -0.779664
 H         1.356791        -0.401294         2.597386
 H         3.135681        -0.527205         2.942746
 H         2.602163         2.597831         0.860774
