19
Iteration:  1594
 C         4.801992         0.114966        -0.406784
 C         3.266200         0.236823        -0.236007
 C         2.284012         0.888493        -1.245367
 C         1.385699         0.243198        -0.077649
 C         2.406306        -1.008037        -0.103314
 O         2.497667        -1.598879         1.141451
 C         2.436395        -0.464788         2.002931
 C         2.432648         0.676241         0.934887
 O         2.585557         1.937307         1.471226
 H         5.193469        -0.254723         0.561032
 H         4.947921        -0.731764        -1.035660
 H         5.351076         1.032248        -0.730106
 H         2.387559         2.026522        -1.319420
 H         2.096034         0.471538        -2.239403
 H         0.228641         0.114341         0.031986
 H         2.348851        -1.927608        -0.781438
 H         1.594352        -0.251549         2.634537
 H         3.356878        -0.367670         2.625273
 H         2.113579         2.579188         1.002607
