19
Iteration:  3302charge 0 multiplicity 1
 C         4.797157         0.244134        -0.393223
 C         3.266912         0.321000        -0.316954
 C         2.179918         1.155160        -1.122394
 C         1.332031         0.331573        -0.068752
 C         2.257738        -0.888811        -0.347274
 O         2.472976        -1.701749         0.878628
 C         2.526664        -0.661671         1.844391
 C         2.495849         0.572436         1.044807
 O         2.658730         1.680759         1.914533
 H         5.157557         0.624016        -1.346337
 H         5.243603         0.766291         0.487437
 H         5.188769        -0.725387        -0.335317
 H         2.222965         2.257907        -1.012405
 H         2.057151         0.970887        -2.159683
 H         0.256112         0.442241        -0.124213
 H         2.096049        -1.416170        -1.304374
 H         1.772235        -0.766388         2.629167
 H         3.523431        -0.776437         2.294806
 H         3.201527         2.408080         1.473466
