19
Iteration:   121
 C         4.821418         0.199001        -0.333428
 C         3.280869         0.200033        -0.312976
 C         2.255863         0.903774        -1.278617
 C         1.420186         0.234109        -0.087169
 C         2.197163        -1.112185        -0.087093
 O         2.457007        -1.649027         1.234806
 C         2.576888        -0.467210         2.059920
 C         2.483265         0.672376         0.973860
 O         2.557035         2.032917         1.245411
 H         5.093794        -0.664748         0.232996
 H         5.098798        -0.106393        -1.328764
 H         5.339214         1.088614        -0.057457
 H         2.345950         1.984277        -1.160517
 H         2.192158         0.651692        -2.295984
 H         0.333524         0.292750         0.027358
 H         1.987805        -1.887781        -0.836900
 H         1.690036        -0.401086         2.649855
 H         3.462652        -0.408735         2.643911
 H         2.905628         2.099506         2.193417
