19
Iteration:   156
 C         4.874085         0.225009        -0.414799
 C         3.345927         0.092724        -0.242327
 C         2.309115         0.763333        -1.238946
 C         1.394745         0.178747        -0.057811
 C         2.279265        -1.030763        -0.138040
 O         2.278954        -1.464831         1.159939
 C         2.701828        -0.394372         2.005341
 C         2.376027         0.683222         0.980714
 O         2.518119         1.990468         1.353325
 H         5.324247        -0.658005         0.219580
 H         5.083321         0.038851        -1.448666
 H         5.432316         0.996042        -0.085055
 H         2.290912         1.774171        -1.186915
 H         2.050148         0.322017        -2.267010
 H         0.296059         0.070196         0.056029
 H         2.015937        -1.930183        -0.791360
 H         2.022165        -0.470537         2.824421
 H         3.685675        -0.542940         2.377296
 H         2.769344         2.133068         2.326026
