19
Iteration:  3115
 C         4.749552         0.249683        -0.434173
 C         3.328913         0.402182        -0.158336
 C         2.296334         1.150937        -1.006140
 C         1.383170         0.286352        -0.062967
 C         2.282876        -0.950827        -0.250357
 O         2.329182        -1.774535         0.872002
 C         2.575430        -0.738646         1.916359
 C         2.484891         0.491662         1.057998
 O         2.594586         1.888652         1.611240
 H         5.371958        -0.075953         0.420307
 H         4.816091        -0.323894        -1.402523
 H         5.062863         1.233599        -0.824388
 H         2.109967         2.308554        -0.811552
 H         2.405013         0.814058        -2.061815
 H         0.213159         0.312294        -0.109101
 H         2.351427        -1.400160        -1.237478
 H         1.863601        -0.731361         2.815991
 H         3.574708        -0.802484         2.419588
 H         3.333077         2.480215         1.286966
