19
Iteration:  4603
 C         4.831393         0.321376        -0.315152
 C         3.310732         0.350912        -0.302898
 C         2.222067         1.123697        -1.135658
 C         1.384613         0.384919        -0.133473
 C         2.262292        -0.895677        -0.294418
 O         2.320358        -1.731186         0.803990
 C         2.593653        -0.698015         1.835929
 C         2.426390         0.587039         1.033563
 O         2.622967         1.670222         1.871504
 H         5.426914        -0.212413        -1.027337
 H         5.252803         1.382638        -0.411441
 H         5.101615        -0.074859         0.707791
 H         2.377034         2.267780        -1.036334
 H         2.104503         0.882988        -2.239397
 H         0.245846         0.517350        -0.060569
 H         2.118638        -1.380218        -1.256499
 H         1.807628        -0.984541         2.558863
 H         3.613938        -0.823092         2.339188
 H         3.576952         1.647208         2.332502
