19
Iteration:  3684
 C         4.874129         0.187492        -0.411981
 C         3.335624         0.293376        -0.274279
 C         2.312936         1.280596        -0.917962
 C         1.400391         0.329036        -0.060837
 C         2.263299        -0.872013        -0.398392
 O         2.392956        -1.662040         0.853841
 C         2.459400        -0.699311         1.853082
 C         2.470198         0.529473         1.035979
 O         2.553916         1.688695         1.782589
 H         5.092061        -0.497246        -1.293205
 H         5.246744         1.208474        -0.714516
 H         5.386394        -0.260780         0.413232
 H         2.354886         2.378592        -0.531739
 H         2.246524         1.221039        -2.004967
 H         0.334569         0.332368         0.108877
 H         2.122391        -1.740198        -1.155310
 H         1.501839        -0.796767         2.340780
 H         3.306351        -0.838698         2.530148
 H         2.966872         2.321941         1.192487
