19
Iteration:  1380charge 0 multiplicity 1
 C         4.846566         0.218567        -0.419854
 C         3.333084         0.220715        -0.308269
 C         2.317204         0.744906        -1.244635
 C         1.381144         0.190364        -0.155451
 C         2.260449        -0.989755        -0.129989
 O         2.340291        -1.554720         1.191491
 C         2.600101        -0.444185         1.989633
 C         2.473580         0.703775         1.034612
 O         2.499672         1.928850         1.551610
 H         5.409920        -0.021113         0.448319
 H         5.240174        -0.452213        -1.192199
 H         5.114301         1.098167        -0.877423
 H         2.415311         1.744372        -1.284869
 H         2.386609         0.210365        -2.287168
 H         0.193156         0.139542         0.001982
 H         2.304687        -1.750949        -0.931671
 H         1.738619        -0.345348         2.716956
 H         3.620436        -0.523760         2.443801
 H         2.686708         2.531302         0.864621
