19
Iteration:  1801
 C         4.812298         0.052718        -0.430853
 C         3.320037         0.150843        -0.373759
 C         2.292217         0.929927        -1.220235
 C         1.408968         0.270240        -0.071136
 C         2.367369        -1.059809        -0.169874
 O         2.503226        -1.561556         1.145343
 C         2.499080        -0.437291         2.040251
 C         2.485304         0.652123         0.993170
 O         2.442761         1.975437         1.550892
 H         5.261696        -0.095443         0.605599
 H         5.259827        -0.726318        -1.016913
 H         5.207586         1.096072        -0.751560
 H         2.358290         1.939743        -1.266437
 H         1.923833         0.593543        -2.299587
 H         0.278432         0.253517         0.025319
 H         1.931178        -1.703260        -0.855461
 H         1.525377        -0.407144         2.592690
 H         3.324985        -0.474134         2.842225
 H         2.675763         2.543242         0.752296
