19
Iteration:  1742charge 0 multiplicity 1
 C         4.789673         0.152818        -0.374122
 C         3.335928         0.187440        -0.237315
 C         2.264094         0.785190        -1.290165
 C         1.348899         0.267639        -0.122006
 C         2.432880        -1.030016        -0.115070
 O         2.322012        -1.632737         1.162206
 C         2.605633        -0.438708         2.007225
 C         2.455044         0.690955         0.890948
 O         2.571031         1.968512         1.561412
 H         5.319663        -0.456214         0.385016
 H         5.136143        -0.014356        -1.482784
 H         5.035820         1.250069        -0.172606
 H         2.120148         1.922993        -1.326824
 H         2.237106         0.384128        -2.268634
 H         0.227453         0.443075        -0.003306
 H         2.235401        -1.769074        -0.989174
 H         1.801923        -0.394575         2.792978
 H         3.616195        -0.459359         2.436275
 H         2.298912         2.678873         0.918726
