19
Iteration:  2925
 C         4.874992         0.299150        -0.428269
 C         3.320000         0.173325        -0.388043
 C         2.270815         1.031998        -1.117955
 C         1.370556         0.299752        -0.046263
 C         2.262976        -1.023981        -0.283216
 O         2.382577        -1.711241         0.991186
 C         2.496720        -0.583451         1.899630
 C         2.494893         0.631987         0.990135
 O         2.563941         1.906781         1.776997
 H         5.110129         0.946918        -1.264622
 H         5.443415         0.585458         0.426266
 H         5.314375        -0.620086        -0.790946
 H         2.341744         2.063441        -1.083245
 H         2.088354         0.720776        -2.206286
 H         0.312710         0.390270         0.132270
 H         1.944299        -1.784543        -1.022258
 H         1.524064        -0.439946         2.494597
 H         3.324089        -0.709959         2.634192
 H         3.459281         2.115596         1.852811
