19
Iteration:  2681
 C         4.820705         0.086507        -0.445582
 C         3.328886         0.229751        -0.230906
 C         2.198131         1.023198        -1.049662
 C         1.391222         0.338819         0.006286
 C         2.352615        -0.952043        -0.235146
 O         2.503495        -1.700242         1.017485
 C         2.546713        -0.582829         1.953497
 C         2.417188         0.647387         1.003814
 O         2.483299         1.967750         1.412998
 H         5.083482        -0.957079        -0.621181
 H         5.242777         0.710324        -1.244456
 H         5.349207         0.433959         0.446830
 H         2.484536         2.142004        -1.099705
 H         2.081067         0.801886        -2.077084
 H         0.290268         0.472374         0.283307
 H         1.949907        -1.675042        -1.172689
 H         1.737608        -0.794973         2.684507
 H         3.425729        -0.615267         2.557281
 H         3.001500         2.060060         2.292593
