19
Iteration:  3834charge 0 multiplicity 1
 C         4.846572         0.162559        -0.373537
 C         3.301523         0.302414        -0.302038
 C         2.295877         1.171637        -1.157590
 C         1.452965         0.388687        -0.063522
 C         2.262984        -0.832273        -0.300928
 O         2.407923        -1.648659         0.791573
 C         2.427901        -0.642594         1.818497
 C         2.505380         0.584717         1.006742
 O         2.584683         1.622859         1.997449
 H         5.169583        -0.489268        -1.249715
 H         5.296404         1.106314        -0.654676
 H         5.356499        -0.080302         0.571721
 H         2.402291         2.239035        -1.039532
 H         2.071156         0.729302        -2.123547
 H         0.404356         0.182332         0.073840
 H         2.139243        -1.441412        -1.249356
 H         1.568761        -0.818459         2.506334
 H         3.359623        -0.703968         2.451185
 H         2.336172         2.407067         1.536632
