19
Iteration:  2455
 C         4.826036         0.206708        -0.402541
 C         3.270118         0.154079        -0.252274
 C         2.232214         1.013768        -1.083311
 C         1.404011         0.253276        -0.093138
 C         2.383855        -1.080186        -0.214946
 O         2.469771        -1.667214         1.085687
 C         2.399769        -0.534953         2.017897
 C         2.458179         0.628159         1.009300
 O         2.621133         2.020890         1.465042
 H         5.165241         0.987008        -1.135286
 H         5.464868         0.123485         0.441370
 H         5.140748        -0.798721        -0.796458
 H         2.158941         2.069611        -1.200991
 H         2.164608         0.594443        -2.184059
 H         0.270188         0.362198         0.147023
 H         2.180645        -1.724356        -0.991639
 H         1.437904        -0.600962         2.542837
 H         3.213366        -0.694767         2.733531
 H         2.765493         2.679193         0.838344
