19
Iteration:  4035charge 0 multiplicity 1
 C         4.833828         0.128161        -0.488750
 C         3.331531         0.367085        -0.257146
 C         2.308421         1.183284        -0.987238
 C         1.401561         0.392417        -0.068718
 C         2.378583        -0.831584        -0.361094
 O         2.410108        -1.735254         0.766440
 C         2.465545        -0.655471         1.863354
 C         2.406111         0.592267         1.089978
 O         2.514544         1.697162         1.925931
 H         5.085115        -0.427663        -1.399622
 H         5.336737         1.155667        -0.530937
 H         5.267863        -0.427900         0.377470
 H         2.427555         2.358158        -0.953150
 H         2.308226         0.798019        -2.011987
 H         0.272614         0.284589        -0.108619
 H         2.406038        -1.432925        -1.270572
 H         1.543398        -0.992638         2.365977
 H         3.305348        -0.951616         2.573849
 H         2.844015         2.473380         1.375171
