19
Iteration:  3144charge 0 multiplicity 1
 C         4.852554         0.174366        -0.394224
 C         3.345753         0.204492        -0.414432
 C         2.236569         1.103493        -1.077597
 C         1.378845         0.401327         0.025629
 C         2.244761        -0.903467        -0.281689
 O         2.370604        -1.683621         0.890942
 C         2.657920        -0.651440         1.895625
 C         2.480128         0.538173         1.027754
 O         2.467695         1.840940         1.724674
 H         5.332022         0.399184         0.559417
 H         5.377247        -0.689602        -0.767800
 H         5.078779         1.170158        -0.894225
 H         2.357935         2.146882        -1.045955
 H         2.021987         0.995379        -2.142493
 H         0.212508         0.452308         0.123459
 H         2.068719        -1.496187        -1.170384
 H         1.869840        -0.792118         2.618964
 H         3.749766        -0.725723         2.085203
 H         3.253388         1.959586         2.380815
