19
Iteration:  3637charge 0 multiplicity 1
 C         4.782613         0.255197        -0.334696
 C         3.330801         0.243929        -0.203194
 C         2.331189         1.111360        -1.105437
 C         1.375400         0.391618        -0.045041
 C         2.214458        -0.868433        -0.389149
 O         2.339860        -1.696064         0.775245
 C         2.555999        -0.692759         1.904563
 C         2.488984         0.550218         1.016052
 O         2.640678         1.747266         1.849513
 H         5.273685         0.425381        -1.344252
 H         5.216609         1.044708         0.325283
 H         5.240577        -0.763599        -0.028638
 H         2.463282         2.263220        -1.010654
 H         2.272043         0.756475        -2.168082
 H         0.285622         0.568238         0.080882
 H         2.105762        -1.435826        -1.330869
 H         1.828675        -0.773486         2.732924
 H         3.593448        -0.906977         2.174407
 H         2.179872         2.446353         1.431693
