19
Iteration:  4458
 C         4.789381         0.336477        -0.240710
 C         3.335047         0.295145        -0.295043
 C         2.303775         1.151734        -0.980191
 C         1.409593         0.404885        -0.063646
 C         2.252450        -0.863925        -0.307636
 O         2.337771        -1.804000         0.771597
 C         2.475154        -0.822510         1.868257
 C         2.470940         0.511920         1.076678
 O         2.732854         1.820768         1.663944
 H         5.221774         0.805022        -1.162046
 H         5.155627         0.998255         0.503274
 H         5.169407        -0.674889        -0.179206
 H         2.281401         2.248704        -0.785453
 H         2.076257         0.990965        -2.079931
 H         0.378896         0.615299         0.055019
 H         2.102194        -1.389946        -1.289264
 H         1.682927        -1.206111         2.525132
 H         3.477278        -0.893803         2.352047
 H         1.997455         2.408315         1.369305
