19
Iteration:   955
 C         4.826176         0.110373        -0.469322
 C         3.288631         0.208805        -0.237178
 C         2.228153         0.777897        -1.256839
 C         1.360088         0.276856        -0.158362
 C         2.326520        -1.009474        -0.142913
 O         2.584603        -1.603853         1.181241
 C         2.388508        -0.370846         1.992997
 C         2.438231         0.671743         0.927127
 O         2.607579         1.938431         1.597485
 H         5.121235        -0.472608         0.394051
 H         5.146995        -0.392374        -1.429350
 H         5.256884         1.085368        -0.344299
 H         2.252164         1.909379        -1.330545
 H         2.032900         0.249807        -2.116331
 H         0.349373         0.348573        -0.046416
 H         2.414392        -1.742754        -0.908801
 H         1.473650        -0.294307         2.637332
 H         3.247800        -0.380462         2.739618
 H         2.463609         2.697695         1.058752
