19
Iteration:  2815
 C         4.771968         0.127584        -0.473311
 C         3.263222         0.240464        -0.223355
 C         2.228376         1.003567        -1.200054
 C         1.358400         0.355171        -0.096454
 C         2.364555        -0.967123        -0.211902
 O         2.508801        -1.738078         0.964059
 C         2.470751        -0.558809         1.893569
 C         2.448620         0.667700         1.041720
 O         2.580239         1.973103         1.694583
 H         5.255811         0.490489         0.441156
 H         4.938403        -0.906784        -0.661387
 H         5.146859         0.753483        -1.227498
 H         2.314103         2.053151        -1.265671
 H         2.079374         0.551789        -2.195861
 H         0.327764         0.343175         0.192559
 H         2.448899        -1.674273        -1.119110
 H         1.654348        -0.605778         2.617158
 H         3.346342        -0.677257         2.439781
 H         3.293435         1.839239         2.448861
