19
Iteration:  1526charge 0 multiplicity 1
 C         4.827902         0.209935        -0.386594
 C         3.321217         0.186952        -0.272593
 C         2.276611         0.760962        -1.221144
 C         1.344318         0.151688        -0.211610
 C         2.333182        -1.024909        -0.117808
 O         2.338250        -1.582545         1.160909
 C         2.596107        -0.396460         2.028395
 C         2.445981         0.721517         0.962101
 O         2.553066         2.003481         1.575616
 H         5.321817        -0.513722         0.198297
 H         5.010717        -0.066934        -1.388365
 H         5.314711         1.171189        -0.148673
 H         2.417009         1.809443        -1.482472
 H         2.265755         0.253643        -2.283608
 H         0.120071         0.019228        -0.249552
 H         2.296642        -1.781073        -0.972482
 H         1.924684        -0.401668         2.913581
 H         3.569363        -0.828476         2.396500
 H         2.850099         2.639252         0.848321
