19
Iteration:  4797
 C         4.885486         0.442567        -0.406190
 C         3.338057         0.243020        -0.308367
 C         2.218701         1.074598        -0.993266
 C         1.364505         0.360951         0.063133
 C         2.252420        -0.941866        -0.365557
 O         2.420632        -1.690519         0.802373
 C         2.404323        -0.778298         1.858162
 C         2.484708         0.577943         1.088259
 O         2.650806         1.764958         1.752281
 H         5.324680         1.078609        -1.145234
 H         5.421625         0.595129         0.556158
 H         5.512518        -0.485975        -0.670722
 H         2.159054         2.182997        -0.943451
 H         1.969432         0.792232        -2.048978
 H         0.273130         0.400637         0.276616
 H         2.123036        -1.539064        -1.286503
 H         1.403783        -0.777615         2.433159
 H         3.146447        -1.031868         2.632049
 H         3.246907         2.186118         1.063267
