19
Iteration:  2547charge 0 multiplicity 1
 C         4.807421         0.151758        -0.324923
 C         3.333049         0.125776        -0.354835
 C         2.236463         1.000718        -1.107025
 C         1.382920         0.289920        -0.046494
 C         2.325660        -0.958083        -0.217900
 O         2.393605        -1.643781         1.099988
 C         2.604521        -0.535320         1.957990
 C         2.499056         0.630758         0.908594
 O         2.553165         1.912529         1.538328
 H         5.075330         0.551337        -1.263669
 H         5.218128         0.678777         0.513976
 H         5.211654        -0.803130        -0.186211
 H         2.336205         2.089656        -0.972925
 H         2.197011         0.858764        -2.210972
 H         0.351350         0.295190         0.007288
 H         2.073803        -1.743097        -1.009231
 H         1.703842        -0.323201         2.584720
 H         3.479765        -0.615538         2.541813
 H         2.041952         2.585798         0.972673
