19
Iteration:  1632
 C         4.872009         0.105930        -0.385972
 C         3.355229         0.181211        -0.298603
 C         2.338983         0.812479        -1.269400
 C         1.381862         0.259354        -0.097047
 C         2.226710        -1.074655        -0.055761
 O         2.380471        -1.600054         1.140358
 C         2.634669        -0.347403         1.897274
 C         2.475603         0.714449         0.937426
 O         2.427805         1.968401         1.626696
 H         5.323413        -0.459291         0.492617
 H         5.234904        -0.368066        -1.412007
 H         5.341699         1.109818        -0.400862
 H         2.517922         1.846421        -1.326163
 H         2.200204         0.394313        -2.294254
 H         0.288307         0.174032        -0.011646
 H         2.196017        -1.781882        -0.894033
 H         1.797733        -0.514099         2.640263
 H         3.652734        -0.375698         2.292927
 H         2.190838         2.613457         0.889639
