19
Iteration:  2259charge 0 multiplicity 1
 C         4.853641         0.257508        -0.348533
 C         3.323160         0.202258        -0.333969
 C         2.215529         0.862261        -1.248468
 C         1.461786         0.268895        -0.151879
 C         2.291236        -1.052756        -0.101082
 O         2.268422        -1.670988         1.224244
 C         2.645005        -0.460846         1.997547
 C         2.472402         0.674695         0.913178
 O         2.547334         1.891575         1.490433
 H         5.449603        -0.256068         0.472929
 H         5.323381        -0.049752        -1.288141
 H         5.148144         1.370622        -0.240404
 H         2.381947         1.910986        -1.272316
 H         2.118816         0.488073        -2.195187
 H         0.304676         0.513050        -0.065219
 H         1.989356        -1.802852        -0.756974
 H         1.908229        -0.425076         2.905980
 H         3.659394        -0.545202         2.392312
 H         2.607275         2.581299         0.868243
