19
Iteration:  2240
 C         4.789820         0.235410        -0.360605
 C         3.330138         0.108421        -0.348591
 C         2.323329         0.928623        -1.166656
 C         1.353377         0.155295        -0.061809
 C         2.260800        -1.075323        -0.178527
 O         2.352069        -1.558225         1.181702
 C         2.540817        -0.403990         2.009685
 C         2.514499         0.605013         0.915829
 O         2.588117         1.959497         1.464004
 H         5.223668        -0.577907         0.227216
 H         5.204808         0.227043        -1.336603
 H         5.113437         1.164913         0.159826
 H         2.400889         2.122807        -1.042974
 H         2.198475         0.674898        -2.204263
 H         0.303995        -0.075534         0.064200
 H         2.377954        -1.889046        -0.967151
 H         1.848958        -0.288972         2.878214
 H         3.543670        -0.550975         2.503715
 H         2.487011         2.475912         0.650441
