19
Iteration:  2078
 C         4.751267         0.185305        -0.329725
 C         3.235679         0.215130        -0.264670
 C         2.238021         0.844260        -1.221024
 C         1.363230         0.159909        -0.122348
 C         2.304221        -1.001999        -0.138566
 O         2.523877        -1.617922         1.172881
 C         2.400808        -0.390198         1.929895
 C         2.419039         0.676432         0.882239
 O         2.763700         1.908747         1.575089
 H         5.121672        -0.022496         0.695964
 H         5.202056        -0.510897        -1.158905
 H         5.115216         1.213535        -0.669276
 H         2.325289         1.878332        -1.348099
 H         2.087602         0.406094        -2.327391
 H         0.315917         0.181799        -0.063935
 H         2.133615        -1.741635        -1.018775
 H         1.599780        -0.437436         2.666224
 H         3.403653        -0.253515         2.461530
 H         2.656376         2.709207         0.948144
