19
Iteration:  3625charge 0 multiplicity 1
 C         4.866913         0.229813        -0.306323
 C         3.263313         0.260450        -0.373789
 C         2.312001         1.129984        -1.104582
 C         1.389333         0.478700        -0.145628
 C         2.217624        -0.885991        -0.278102
 O         2.355320        -1.726491         0.842774
 C         2.599152        -0.637747         1.842123
 C         2.451949         0.590595         1.056877
 O         2.652809         1.615770         1.870259
 H         5.131957         0.684991        -1.301716
 H         5.097066         0.934711         0.511265
 H         5.324642        -0.819304        -0.030538
 H         2.463006         2.245457        -0.965492
 H         2.062435         0.981975        -2.210784
 H         0.268724         0.501529        -0.170928
 H         2.035755        -1.488247        -1.113417
 H         1.769719        -0.732189         2.589175
 H         3.517351        -0.620894         2.456696
 H         2.102622         2.425284         1.514670
