19
Iteration:  1795
 C         4.801029         0.086337        -0.446264
 C         3.363963         0.098292        -0.322358
 C         2.270852         0.937455        -1.186462
 C         1.399180         0.277377        -0.077483
 C         2.355484        -1.033912        -0.133106
 O         2.484647        -1.578324         1.157072
 C         2.510960        -0.450774         2.004654
 C         2.521544         0.630887         0.963919
 O         2.411558         1.981083         1.527067
 H         5.068935        -0.080177         0.580189
 H         5.264899        -0.720314        -1.062676
 H         5.219798         1.003225        -0.714010
 H         2.581100         2.117832        -1.221987
 H         1.845433         0.660209        -2.092523
 H         0.334583         0.399747        -0.062653
 H         2.093494        -1.818992        -0.948161
 H         1.612338        -0.340677         2.609197
 H         3.399693        -0.389530         2.595684
 H         2.667195         2.521011         0.716045
