19
Iteration:  3851charge 0 multiplicity 1
 C         4.785626         0.207004        -0.457179
 C         3.331428         0.273005        -0.278924
 C         2.379470         1.145830        -1.068445
 C         1.343765         0.461416        -0.150937
 C         2.291715        -0.903227        -0.367286
 O         2.431064        -1.702089         0.855052
 C         2.529456        -0.705042         1.865362
 C         2.442809         0.582935         1.080130
 O         2.525453         1.665261         1.953138
 H         4.998439        -0.266911        -1.385963
 H         5.189676         1.263842        -0.586962
 H         5.035711        -0.484957         0.395112
 H         2.582999         2.261372        -0.950146
 H         2.450586         0.950906        -2.236884
 H         0.285382         0.927730        -0.207298
 H         2.255602        -1.509836        -1.244394
 H         1.684330        -0.673997         2.585180
 H         3.364419        -0.801075         2.549618
 H         2.697913         2.511198         1.658778
