19
Iteration:   337
 C         4.846402         0.121802        -0.464896
 C         3.328488         0.189549        -0.250681
 C         2.282805         0.932333        -1.224444
 C         1.366568         0.301737        -0.077015
 C         2.384929        -1.042658        -0.002482
 O         2.479674        -1.630434         1.234441
 C         2.348859        -0.485479         2.031000
 C         2.451988         0.688207         0.917839
 O         2.621423         1.967323         1.326539
 H         5.067349        -0.730622         0.177696
 H         5.100453        -0.087606        -1.559264
 H         5.160368         1.207662        -0.002707
 H         2.380134         2.178628        -1.218903
 H         2.209546         0.355646        -2.154019
 H         0.345120         0.087028         0.184396
 H         2.458144        -1.862681        -0.630489
 H         1.379140        -0.606571         2.554709
 H         3.174794        -0.578786         2.771267
 H         2.097898         2.530666         0.724934
