19
Iteration:  2485
 C         4.829724         0.140631        -0.443465
 C         3.307207         0.183591        -0.334212
 C         2.293186         0.951040        -1.205151
 C         1.421713         0.273660        -0.113669
 C         2.369933        -1.012664        -0.207820
 O         2.412227        -1.561800         1.143066
 C         2.530654        -0.452162         1.999604
 C         2.442668         0.651759         0.932964
 O         2.488215         1.828365         1.668414
 H         5.275144         0.753926        -1.269418
 H         5.435760         0.441803         0.482054
 H         4.970870        -0.897451        -0.794639
 H         2.270025         2.075769        -1.185032
 H         2.221999         0.449359        -2.104552
 H         0.305217         0.317705         0.030159
 H         2.032924        -1.746416        -0.994281
 H         1.647990        -0.345598         2.650718
 H         3.546521        -0.459467         2.530714
 H         2.646542         2.658218         1.113192
