19
Iteration:  4841charge 0 multiplicity 1
 C         4.758522         0.296116        -0.451546
 C         3.282007         0.290245        -0.240447
 C         2.279838         1.110078        -1.090398
 C         1.368694         0.323582        -0.128556
 C         2.379253        -0.933489        -0.352406
 O         2.372918        -1.600391         0.824399
 C         2.546495        -0.649691         1.865721
 C         2.358865         0.561951         1.067457
 O         2.691529         1.663054         1.938576
 H         4.880314         0.926189        -1.296911
 H         5.155746         0.645245         0.532426
 H         5.202315        -0.739154        -0.631310
 H         2.384851         2.222624        -0.990258
 H         2.191612         0.692882        -2.114389
 H         0.242602         0.403989        -0.041685
 H         2.368446        -1.643062        -1.224494
 H         1.942761        -0.968124         2.795543
 H         3.603724        -0.648499         2.238142
 H         2.415651         2.459165         1.466406
