19
Iteration:  3089charge 0 multiplicity 1
 C         4.814086         0.277078        -0.488468
 C         3.353467         0.249692        -0.352481
 C         2.203736         1.113175        -1.043067
 C         1.417462         0.291250        -0.050442
 C         2.327774        -0.995607        -0.325720
 O         2.425452        -1.644329         0.930931
 C         2.410627        -0.640881         1.961536
 C         2.465479         0.554862         1.090809
 O         2.670697         1.776707         1.733515
 H         5.241977        -0.493689         0.117135
 H         5.123356         0.327871        -1.503138
 H         5.137566         1.273149        -0.108357
 H         2.304008         2.119774        -0.868756
 H         2.149616         0.880195        -2.094933
 H         0.291040         0.298254        -0.090914
 H         1.901101        -1.552881        -1.136011
 H         1.573190        -0.790735         2.586744
 H         3.235632        -0.735554         2.657376
 H         2.701418         2.696419         1.280458
