19
Iteration:  3224charge 0 multiplicity 1
 C         4.755093         0.280648        -0.491080
 C         3.342441         0.198051        -0.322000
 C         2.238850         1.246335        -0.971608
 C         1.454504         0.381482         0.001335
 C         2.230214        -0.919391        -0.314928
 O         2.445861        -1.745857         0.882521
 C         2.513649        -0.719754         1.932749
 C         2.548229         0.489439         1.028906
 O         2.621922         1.807895         1.680368
 H         5.025288         1.241161        -0.044672
 H         5.266827        -0.353518         0.251268
 H         5.251996         0.024774        -1.387961
 H         2.393126         2.301860        -0.601941
 H         2.042611         1.102426        -2.002251
 H         0.317216         0.377949         0.202273
 H         2.044154        -1.489821        -1.219275
 H         1.562341        -0.682549         2.500003
 H         3.245361        -1.026888         2.661974
 H         1.883641         2.366032         1.243739
