19
Iteration:  3645charge 0 multiplicity 1
 C         4.784881         0.250775        -0.326562
 C         3.303352         0.280854        -0.232403
 C         2.355054         1.132599        -1.043697
 C         1.406566         0.357882        -0.039673
 C         2.259962        -0.884504        -0.378463
 O         2.306745        -1.681362         0.788626
 C         2.541215        -0.807382         1.824144
 C         2.490736         0.561066         1.079903
 O         2.631032         1.820451         1.806650
 H         5.071306         0.327535        -1.409729
 H         5.388343         1.066602         0.087653
 H         5.185729        -0.737068         0.089642
 H         2.357088         2.159733        -1.172808
 H         2.321465         0.768559        -2.113253
 H         0.328430         0.374272         0.277086
 H         2.117200        -1.280949        -1.298609
 H         1.819607        -0.885929         2.687267
 H         3.522063        -0.975770         2.333653
 H         2.284450         2.602147         1.371314
