19
Iteration:  4816charge 0 multiplicity 1
 C         4.888366         0.386083        -0.395463
 C         3.331728         0.333371        -0.286342
 C         2.150889         1.134095        -1.176928
 C         1.385233         0.358293        -0.106242
 C         2.244484        -0.880472        -0.276725
 O         2.434751        -1.790297         0.858155
 C         2.400443        -0.709921         1.915156
 C         2.585601         0.557171         0.984876
 O         2.666040         1.686401         1.901101
 H         4.981993         1.143125        -1.241535
 H         5.188706         0.701762         0.552530
 H         5.257698        -0.571263        -0.670979
 H         2.161104         2.191945        -1.022242
 H         1.987256         0.694263        -2.213609
 H         0.382554         0.250269         0.160495
 H         1.936953        -1.420493        -1.156133
 H         1.455385        -0.771104         2.504151
 H         3.213141        -0.877385         2.636870
 H         3.090570         2.511158         1.379872
