19
Iteration:  3837charge 0 multiplicity 1
 C         4.820619         0.159543        -0.389487
 C         3.295329         0.286546        -0.286644
 C         2.317663         1.140737        -1.145183
 C         1.440138         0.413824        -0.088263
 C         2.281851        -0.834994        -0.326386
 O         2.416705        -1.647737         0.807307
 C         2.452317        -0.644240         1.842846
 C         2.499909         0.606461         0.990673
 O         2.573105         1.605445         2.002511
 H         5.139831        -0.473127        -1.228425
 H         5.276744         1.146646        -0.554490
 H         5.375882        -0.065182         0.480161
 H         2.325762         2.223576        -0.957439
 H         2.132754         0.823065        -2.111463
 H         0.392503         0.287970         0.074539
 H         2.049430        -1.421598        -1.250083
 H         1.559108        -0.758794         2.450695
 H         3.355591        -0.778920         2.440461
 H         2.366590         2.495428         1.507115
