19
Iteration:   129charge 0 multiplicity 1
 C         4.733950         0.179157        -0.358626
 C         3.304428         0.201846        -0.263423
 C         2.305533         0.939611        -1.279436
 C         1.446309         0.233615        -0.132765
 C         2.248952        -1.109213        -0.101913
 O         2.385804        -1.715693         1.285397
 C         2.639432        -0.453918         2.027030
 C         2.466546         0.669067         0.917343
 O         2.546478         2.061417         1.272844
 H         5.189332        -0.606144         0.179831
 H         5.205104        -0.035175        -1.362172
 H         5.278204         1.155390         0.039169
 H         1.914977         2.069123        -1.286022
 H         2.180759         0.546028        -2.265531
 H         0.400136         0.463379         0.088295
 H         2.029218        -1.957761        -0.709254
 H         1.822214        -0.339287         2.813834
 H         3.584153        -0.584468         2.628541
 H         2.838518         2.182148         2.207578
