19
Iteration:  2784
 C         4.929290         0.270158        -0.535070
 C         3.376736         0.162118        -0.267210
 C         2.263996         1.134011        -1.020050
 C         1.387297         0.314130        -0.051606
 C         2.285797        -0.991678        -0.230308
 O         2.321503        -1.645509         1.032958
 C         2.501721        -0.592923         1.977780
 C         2.475145         0.521357         1.074200
 O         2.497807         1.859439         1.471998
 H         5.370889         0.234730         0.485410
 H         5.298909        -0.605831        -1.079590
 H         5.126187         1.201678        -1.085899
 H         2.367995         2.135832        -0.873491
 H         2.035174         0.775734        -2.043417
 H         0.341179         0.228141         0.161167
 H         2.194137        -1.657357        -0.957855
 H         1.758880        -0.529353         2.765065
 H         3.514688        -0.726617         2.350792
 H         3.336110         2.057375         1.795305
