19
Iteration:   850
 C         4.814181         0.183401        -0.333579
 C         3.266407         0.186259        -0.321802
 C         2.243667         0.816494        -1.270581
 C         1.338344         0.201674        -0.078696
 C         2.240496        -0.943781        -0.148429
 O         2.536493        -1.636505         1.146002
 C         2.503074        -0.412879         2.041011
 C         2.470621         0.688585         0.935934
 O         2.640660         1.921203         1.536732
 H         5.198522        -0.442483         0.491070
 H         5.122690        -0.347326        -1.214881
 H         5.295916         1.224006        -0.235972
 H         2.207144         1.818849        -1.611346
 H         2.368512         0.254049        -2.355885
 H         0.136069         0.351857        -0.084458
 H         2.067824        -1.753539        -0.881590
 H         1.556071        -0.270279         2.638280
 H         3.444366        -0.303021         2.577547
 H         2.356378         2.619756         0.848918
