19
Iteration:  3650charge 0 multiplicity 1
 C         4.820512         0.232597        -0.341200
 C         3.283416         0.332576        -0.258115
 C         2.348813         1.134062        -1.016356
 C         1.435474         0.352527        -0.036352
 C         2.299914        -0.860493        -0.331117
 O         2.277597        -1.711126         0.786542
 C         2.544723        -0.852719         1.797481
 C         2.483615         0.592429         1.133587
 O         2.628118         1.841248         1.778678
 H         4.875546         0.159455        -1.477116
 H         5.349100         1.107179         0.088901
 H         5.176669        -0.677252         0.169926
 H         2.328592         2.314443        -1.100748
 H         2.265721         0.767047        -2.049362
 H         0.380098         0.237255         0.213811
 H         2.119489        -1.431946        -1.350218
 H         1.728712        -0.990088         2.515523
 H         3.460445        -0.999156         2.387511
 H         2.330129         2.601599         1.160373
