19
Iteration:  1255
 C         4.863369         0.111629        -0.457572
 C         3.331509         0.176603        -0.286493
 C         2.317666         0.829781        -1.221579
 C         1.406774         0.221876        -0.049533
 C         2.332615        -1.052641        -0.119339
 O         2.359078        -1.626798         1.200548
 C         2.638398        -0.399552         2.026191
 C         2.425550         0.682948         0.947602
 O         2.400515         2.012191         1.478691
 H         5.302937        -0.816728        -0.145983
 H         5.079480         0.299690        -1.492125
 H         5.364309         0.866729         0.165867
 H         2.478143         1.943366        -1.270041
 H         2.190143         0.531442        -2.249637
 H         0.350699         0.432789        -0.133467
 H         2.256533        -1.747619        -0.952947
 H         1.884924        -0.501180         2.847306
 H         3.625741        -0.291659         2.523957
 H         2.616414         2.613462         0.750512
