19
Iteration:  1588charge 0 multiplicity 1
 C         4.820485         0.133559        -0.373102
 C         3.296847         0.192735        -0.246764
 C         2.276417         0.905454        -1.190552
 C         1.382266         0.197178        -0.072699
 C         2.364982        -1.032564        -0.151612
 O         2.528901        -1.598184         1.174041
 C         2.410696        -0.444810         1.977323
 C         2.427980         0.686953         0.907577
 O         2.590000         1.953975         1.463618
 H         5.336225        -0.228946         0.554660
 H         4.922185        -0.709558        -1.157206
 H         5.307689         1.003666        -0.802796
 H         2.287690         1.983416        -1.181117
 H         2.144883         0.513973        -2.240486
 H         0.357460         0.220258         0.192187
 H         2.165228        -1.751533        -0.906363
 H         1.468386        -0.223929         2.570679
 H         3.305202        -0.503017         2.591393
 H         2.157224         2.687208         0.952669
