19
Iteration:  4785
 C         4.778872         0.390529        -0.416489
 C         3.297901         0.292578        -0.273370
 C         2.279995         1.139842        -0.954019
 C         1.372671         0.340081         0.010241
 C         2.358737        -0.867750        -0.307746
 O         2.385436        -1.798535         0.807237
 C         2.445012        -0.755935         1.896289
 C         2.458115         0.503993         1.056897
 O         2.665226         1.793818         1.680665
 H         5.070577         1.196924        -1.094771
 H         5.095504         0.683163         0.560737
 H         5.066845        -0.630235        -0.707375
 H         2.492461         2.196101        -0.776484
 H         2.152873         0.981109        -2.073086
 H         0.322362         0.250883         0.162957
 H         2.151657        -1.404061        -1.227155
 H         1.490870        -0.878023         2.503816
 H         3.375551        -0.892327         2.468741
 H         3.178054         2.386464         1.207369
