19
Iteration:  2327
 C         4.857624         0.073981        -0.453302
 C         3.336784         0.220801        -0.346701
 C         2.245554         0.972358        -1.109222
 C         1.392341         0.225984        -0.088596
 C         2.315841        -1.012667        -0.116447
 O         2.556055        -1.577663         1.137184
 C         2.376834        -0.427338         2.056744
 C         2.508139         0.631525         0.901315
 O         2.528583         1.882095         1.491642
 H         5.405049         0.319806         0.468965
 H         5.127531        -0.968580        -0.617382
 H         5.228628         0.817538        -1.241855
 H         2.202777         2.084519        -1.010779
 H         2.140634         0.765704        -2.093184
 H         0.258301         0.130098        -0.042917
 H         1.963330        -1.811988        -0.886448
 H         1.340517        -0.362816         2.575466
 H         3.255423        -0.427085         2.731376
 H         2.437019         2.709782         0.906627
