19
Iteration:  4779charge 0 multiplicity 1
 C         4.702433         0.328164        -0.396958
 C         3.262747         0.320509        -0.202207
 C         2.257649         1.228238        -1.001340
 C         1.442157         0.297906        -0.057727
 C         2.330341        -0.904628        -0.302243
 O         2.380564        -1.802916         0.816210
 C         2.481829        -0.776344         1.918770
 C         2.476365         0.525023         1.073484
 O         2.660816         1.779201         1.675104
 H         4.900113         1.137323        -1.117894
 H         5.298157         0.707495         0.528517
 H         5.280459        -0.559264        -0.763655
 H         2.423558         2.318736        -0.822532
 H         2.265602         1.172689        -2.071206
 H         0.297800         0.339690        -0.006748
 H         2.256010        -1.466421        -1.259061
 H         1.655400        -0.860839         2.588439
 H         3.453823        -0.788741         2.434958
 H         3.163400         2.482455         1.221741
