19
Iteration:   743charge 0 multiplicity 1
 C         4.840892         0.055360        -0.374589
 C         3.335583         0.198598        -0.317397
 C         2.220301         0.832891        -1.338685
 C         1.368655         0.273071        -0.155343
 C         2.351935        -0.963187        -0.149076
 O         2.420034        -1.557045         1.171129
 C         2.627917        -0.470375         2.085751
 C         2.434047         0.703753         0.984198
 O         2.526533         1.924775         1.540186
 H         5.412743        -0.648817         0.253249
 H         5.185248         0.075567        -1.375480
 H         5.205772         1.051921         0.033082
 H         2.303207         1.932012        -1.380628
 H         1.986833         0.313670        -2.279440
 H         0.292984         0.065207        -0.043590
 H         2.169060        -1.833911        -0.857488
 H         1.720888        -0.447137         2.725605
 H         3.532123        -0.192263         2.734165
 H         1.999699         2.585805         0.969053
