19
Iteration:  1251charge 0 multiplicity 1
 C         4.859824         0.133407        -0.454448
 C         3.315235         0.180228        -0.258380
 C         2.338402         0.837606        -1.212751
 C         1.423190         0.241189        -0.071966
 C         2.331386        -1.082947        -0.119169
 O         2.384780        -1.649342         1.211875
 C         2.592858        -0.416923         2.014580
 C         2.446301         0.678817         0.953447
 O         2.406491         2.015299         1.466914
 H         5.314225        -0.838987        -0.138461
 H         4.955730         0.223819        -1.588470
 H         5.430414         0.867896         0.232913
 H         2.305472         2.068567        -1.354690
 H         2.027799         0.571646        -2.227736
 H         0.383655         0.502587        -0.082162
 H         2.184732        -1.710558        -0.974802
 H         1.926660        -0.323343         2.887237
 H         3.583414        -0.319739         2.490144
 H         2.637852         2.588195         0.663175
