19
Iteration:  2710charge 0 multiplicity 1
 C         4.779619         0.105620        -0.357283
 C         3.266393         0.271236        -0.326569
 C         2.157276         0.994445        -1.223360
 C         1.362660         0.256890        -0.114650
 C         2.286205        -1.027288        -0.290896
 O         2.560869        -1.618578         1.049948
 C         2.533172        -0.493931         1.964437
 C         2.469028         0.670800         0.966116
 O         2.594905         1.914041         1.663709
 H         4.924773        -0.971548        -0.241924
 H         5.243461         0.470496        -1.291054
 H         5.153366         0.779638         0.453709
 H         2.201294         2.070595        -1.132272
 H         2.172956         0.652243        -2.321128
 H         0.367962         0.490587         0.169608
 H         1.973317        -1.756481        -1.026849
 H         1.584716        -0.609808         2.505429
 H         3.416908        -0.575263         2.692815
 H         3.321424         1.739190         2.327943
