19
Iteration:  4959charge 0 multiplicity 1
 C         4.918872         0.439837        -0.467662
 C         3.350220         0.378674        -0.304423
 C         2.222949         1.059699        -1.170893
 C         1.479300         0.331818        -0.020857
 C         2.207418        -0.928544        -0.320226
 O         2.331668        -1.767751         0.816656
 C         2.451224        -0.717184         1.870174
 C         2.525445         0.534982         1.041449
 O         2.615473         1.700490         1.971148
 H         5.204159        -0.240843        -1.299269
 H         5.170814         1.438246        -0.651070
 H         5.436602         0.138660         0.478335
 H         2.039542         2.112511        -0.914554
 H         1.936687         0.848638        -2.241283
 H         0.434610         0.488509         0.152286
 H         1.820202        -1.436751        -1.238059
 H         1.554664        -0.745666         2.494763
 H         3.320746        -0.896354         2.466236
 H         3.166251         2.509191         1.595567
