19
Iteration:  1122
 C         4.849738         0.094648        -0.432040
 C         3.336019         0.205810        -0.298240
 C         2.262431         0.895363        -1.195912
 C         1.454660         0.222577        -0.086353
 C         2.324099        -0.999729        -0.147126
 O         2.366542        -1.565239         1.180339
 C         2.591773        -0.453873         2.075051
 C         2.474198         0.630345         0.941237
 O         2.439663         1.947852         1.477100
 H         5.394256        -0.149538         0.436870
 H         5.045319        -0.594746        -1.246949
 H         5.031342         1.078654        -0.944772
 H         2.336366         2.024319        -1.142384
 H         2.222674         0.779223        -2.269292
 H         0.391733         0.067349         0.080463
 H         2.432348        -1.861415        -0.827986
 H         1.719811        -0.294445         2.787957
 H         3.593781        -0.393628         2.643846
 H         2.515404         2.426757         0.665107
