19
Iteration:  3578
 C         4.877082         0.189620        -0.394214
 C         3.325078         0.327110        -0.137700
 C         2.263058         1.130123        -1.014141
 C         1.369274         0.369983        -0.039854
 C         2.336943        -0.798835        -0.342382
 O         2.388879        -1.702439         0.780756
 C         2.425835        -0.838408         1.859808
 C         2.448036         0.608556         1.077091
 O         2.630754         1.822079         1.735366
 H         5.048826         0.832579        -1.249426
 H         5.475045         0.450589         0.555715
 H         4.879566        -0.893508        -0.564048
 H         2.231074         2.171557        -1.054139
 H         2.232154         0.852418        -2.114699
 H         0.274539         0.282535        -0.017188
 H         2.194335        -1.526464        -1.164989
 H         1.649628        -0.942288         2.680698
 H         3.340928        -1.147099         2.473194
 H         2.919698         2.493339         1.069767
