19
Iteration:  4428
 C         4.791500         0.259366        -0.259763
 C         3.342919         0.320043        -0.306927
 C         2.263887         1.273601        -0.950104
 C         1.389668         0.264615        -0.122143
 C         2.250467        -0.905204        -0.413374
 O         2.378078        -1.687158         0.775180
 C         2.462117        -0.668771         1.905397
 C         2.529431         0.514515         1.020419
 O         2.721262         1.690068         1.744653
 H         5.069673         0.157499        -1.240223
 H         5.183300         1.221624         0.138512
 H         5.065947        -0.667411         0.288831
 H         2.201762         2.251658        -0.485141
 H         2.162883         1.153025        -2.015388
 H         0.321866         0.327460         0.172896
 H         2.179672        -1.524627        -1.240161
 H         1.598306        -0.872890         2.531764
 H         3.366284        -0.696588         2.560892
 H         2.013396         2.242504         1.453899
