19
Iteration:  3345charge 0 multiplicity 1
 C         4.761433         0.229773        -0.436863
 C         3.317884         0.301600        -0.209481
 C         2.285344         1.213915        -0.888335
 C         1.383978         0.326599        -0.041503
 C         2.266162        -0.890280        -0.380513
 O         2.423976        -1.742449         0.758935
 C         2.555585        -0.833742         1.890223
 C         2.483128         0.568177         1.104882
 O         2.636077         1.874266         1.694964
 H         4.914353        -0.232270        -1.469832
 H         5.375233         1.194227        -0.445060
 H         5.291914        -0.421576         0.246343
 H         2.366285         2.315956        -0.650288
 H         2.121137         1.141295        -1.938389
 H         0.318991         0.139961         0.165482
 H         2.092631        -1.486417        -1.289064
 H         1.684970        -0.883557         2.584971
 H         3.452532        -0.972059         2.529791
 H         1.888360         2.444057         1.513504
