19
Iteration:  2129charge 0 multiplicity 1
 C         4.851052         0.157167        -0.441071
 C         3.323914         0.142550        -0.183021
 C         2.338914         0.833387        -1.150599
 C         1.370855         0.245704        -0.059716
 C         2.311388        -1.028205        -0.122679
 O         2.311957        -1.633352         1.104057
 C         2.679740        -0.437135         1.982939
 C         2.433595         0.670866         0.960090
 O         2.482891         2.030213         1.434343
 H         5.317534        -0.709348         0.013150
 H         5.050212         0.148515        -1.452371
 H         5.354937         1.063624        -0.059777
 H         2.419434         2.053114        -1.037356
 H         2.302077         0.358475        -2.106268
 H         0.268854         0.238505         0.225629
 H         2.193976        -1.711064        -0.888780
 H         1.843870        -0.407953         2.723906
 H         3.610506        -0.611081         2.514421
 H         2.304833         2.562339         0.598763
