19
Iteration:  4228
 C         4.903640         0.267408        -0.383884
 C         3.347088         0.199503        -0.312477
 C         2.373239         1.178770        -0.938860
 C         1.387514         0.399746         0.028674
 C         2.257183        -0.858660        -0.319824
 O         2.341203        -1.687543         0.780157
 C         2.509032        -0.789412         1.859542
 C         2.497061         0.540382         1.100421
 O         2.477023         1.783587         1.697554
 H         5.258931         0.866644        -1.292448
 H         5.388256         0.687469         0.514700
 H         5.142121        -0.764962        -0.530448
 H         2.618122         2.224510        -0.771283
 H         2.016700         1.005944        -2.003070
 H         0.324882         0.429511         0.265472
 H         2.073431        -1.561712        -1.284613
 H         1.620394        -0.801174         2.489400
 H         3.380423        -1.069900         2.452281
 H         2.885388         2.532591         1.086909
