19
Iteration:  1540charge 0 multiplicity 1
 C         4.801838         0.195547        -0.411584
 C         3.298588         0.237445        -0.179988
 C         2.308408         0.804618        -1.240679
 C         1.419031         0.217643        -0.112882
 C         2.317795        -0.998250        -0.129565
 O         2.354438        -1.656389         1.158263
 C         2.544688        -0.414129         2.007430
 C         2.473141         0.659506         0.972622
 O         2.548821         1.937211         1.465796
 H         5.256946        -0.434752         0.417109
 H         5.110821        -0.178422        -1.415600
 H         5.169527         1.294587        -0.371603
 H         2.087789         1.903147        -1.333749
 H         2.299908         0.297366        -2.099479
 H         0.301627         0.270158        -0.062190
 H         2.363972        -1.813348        -0.940428
 H         1.737164        -0.285231         2.718022
 H         3.524452        -0.121886         2.448908
 H         2.832567         2.488780         0.770974
