19
Iteration:  1431
 C         4.820972         0.060099        -0.367388
 C         3.338290         0.235339        -0.289257
 C         2.237742         0.880324        -1.163374
 C         1.384758         0.148793        -0.117189
 C         2.290766        -1.015827        -0.133675
 O         2.499046        -1.553913         1.130676
 C         2.474578        -0.364649         2.034587
 C         2.510984         0.646468         0.964635
 O         2.511947         1.943682         1.483015
 H         5.410770        -0.648853         0.328713
 H         5.079761        -0.297520        -1.411096
 H         5.325723         1.120035        -0.402044
 H         2.220382         2.053415        -1.382075
 H         2.278230         0.406961        -2.195365
 H         0.341222         0.164067        -0.088293
 H         2.096183        -1.867558        -0.940754
 H         1.612725        -0.395325         2.741561
 H         3.429302        -0.165819         2.598707
 H         2.436317         2.654261         0.773283
