19
Iteration:  2999
 C         4.818283         0.173741        -0.411410
 C         3.284440         0.261413        -0.317946
 C         2.274867         1.204084        -0.996876
 C         1.419833         0.340982         0.016805
 C         2.239269        -0.936276        -0.315602
 O         2.404889        -1.683061         0.977978
 C         2.616989        -0.656016         1.936881
 C         2.510992         0.538081         1.003357
 O         2.512300         1.832679         1.461989
 H         5.296531        -0.562467        -1.060087
 H         5.292686         1.151568        -0.454695
 H         5.199986        -0.141163         0.535713
 H         2.523970         2.146853        -0.722989
 H         2.072536         1.185160        -2.037384
 H         0.398331         0.383286         0.218017
 H         2.056967        -1.692888        -1.167335
 H         1.863726        -0.675148         2.656772
 H         3.531896        -0.780463         2.556988
 H         2.212912         1.823535         2.411681
