19
Iteration:   614charge 0 multiplicity 1
 C         4.821463         0.223397        -0.386123
 C         3.326971         0.187898        -0.284800
 C         2.255038         0.765687        -1.219828
 C         1.405267         0.217462        -0.143268
 C         2.337119        -1.038114        -0.170935
 O         2.391456        -1.567942         1.201778
 C         2.508947        -0.415249         1.992609
 C         2.478703         0.668424         0.962764
 O         2.584557         1.926758         1.537402
 H         5.333885        -0.462554         0.365945
 H         5.172103        -0.201306        -1.355985
 H         5.188979         1.249204        -0.347873
 H         2.086638         1.887956        -1.580965
 H         2.212803         0.169045        -2.091385
 H         0.414212         0.452727         0.004655
 H         2.132330        -1.754795        -1.049994
 H         1.638514        -0.236263         2.631235
 H         3.381872        -0.403350         2.659624
 H         2.325823         2.588424         0.915531
