19
Iteration:  2140
 C         4.784016         0.117129        -0.467651
 C         3.329504         0.182280        -0.229920
 C         2.330818         0.873629        -1.151210
 C         1.403819         0.184053        -0.140255
 C         2.317956        -1.029148        -0.160238
 O         2.330567        -1.565069         1.186129
 C         2.624749        -0.484541         2.028440
 C         2.514455         0.692258         1.013631
 O         2.444971         1.998671         1.471785
 H         5.239979        -0.808749        -0.135287
 H         4.995973         0.232436        -1.471975
 H         5.258010         0.915653         0.128298
 H         2.625929         1.983641        -1.498150
 H         2.227358         0.438825        -2.129739
 H         0.307958         0.391426        -0.182364
 H         2.301346        -1.780852        -0.880300
 H         2.039276        -0.535197         2.969360
 H         3.702002        -0.532951         2.227664
 H         2.324262         2.677702         0.716674
