19
Iteration:  3945
 C         4.682759         0.277844        -0.237373
 C         3.224558         0.359306        -0.252880
 C         2.389391         1.119472        -1.232011
 C         1.355597         0.388204        -0.119012
 C         2.233804        -0.883162        -0.319975
 O         2.417769        -1.736679         0.822306
 C         2.532490        -0.762874         1.843159
 C         2.382508         0.618855         1.059431
 O         2.790325         1.672670         1.876639
 H         5.053127         0.955466        -1.090769
 H         5.164278         0.766361         0.608582
 H         5.044174        -0.701852        -0.457784
 H         2.370657         2.240186        -1.207526
 H         2.551259         0.721788        -2.260113
 H         0.318134         0.490069        -0.052040
 H         2.078924        -1.343284        -1.347166
 H         1.795249        -1.043911         2.618646
 H         3.519291        -0.686461         2.391861
 H         2.269102         2.547356         1.693972
