19
Iteration:  2365charge 0 multiplicity 1
 C         4.835349         0.154748        -0.443704
 C         3.363417         0.219314        -0.202387
 C         2.303555         0.881283        -1.198102
 C         1.385916         0.295188        -0.127267
 C         2.291950        -0.939608        -0.087195
 O         2.421302        -1.695886         1.094769
 C         2.565838        -0.530110         2.023114
 C         2.422142         0.727559         0.993840
 O         2.493242         1.972778         1.511021
 H         5.460512         0.633680         0.327863
 H         4.946160        -0.956510        -0.358878
 H         5.116565         0.253494        -1.459982
 H         2.269533         1.973592        -1.428653
 H         2.167110         0.371678        -2.337665
 H         0.314498         0.274906        -0.027750
 H         2.234426        -1.665541        -0.920067
 H         1.886204        -0.666785         2.848412
 H         3.634627        -0.595085         2.347631
 H         2.420267         2.596346         0.800131
