19
Iteration:  3472
 C         4.806408         0.271024        -0.346668
 C         3.312295         0.262309        -0.298174
 C         2.273432         1.262303        -1.018824
 C         1.383696         0.401414        -0.049411
 C         2.254911        -0.855109        -0.332580
 O         2.412735        -1.731852         0.832967
 C         2.494339        -0.791346         1.856747
 C         2.492492         0.544195         1.043644
 O         2.663160         1.744197         1.681947
 H         5.219876        -0.291773        -1.215831
 H         5.301092         1.194141        -0.294988
 H         5.116697        -0.430478         0.513334
 H         2.477995         2.278509        -0.672302
 H         2.108242         1.019315        -2.087191
 H         0.268440         0.478394         0.094114
 H         2.152510        -1.460272        -1.165526
 H         1.639699        -0.810284         2.521645
 H         3.441914        -0.697223         2.362450
 H         1.956745         1.725741         2.411932
