19
Iteration:    83charge 0 multiplicity 1
 C         4.769465         0.110045        -0.388227
 C         3.269836         0.238907        -0.302932
 C         2.190051         0.849416        -1.276896
 C         1.412448         0.212313        -0.101915
 C         2.368753        -1.031423        -0.094957
 O         2.527745        -1.636081         1.204726
 C         2.401589        -0.411640         2.010731
 C         2.488650         0.677583         0.936021
 O         2.567843         2.060219         1.424374
 H         5.186296        -0.591368         0.417952
 H         4.977465        -0.515917        -1.302082
 H         5.471431         1.003980        -0.412175
 H         2.341165         1.963087        -1.325658
 H         2.027431         0.375617        -2.318902
 H         0.315777         0.152112         0.028046
 H         2.273742        -1.861083        -0.816148
 H         1.509646        -0.499551         2.684882
 H         3.270936        -0.455736         2.753572
 H         3.388294         2.255718         1.814420
