19
Iteration:   109
 C         4.839408         0.120133        -0.356136
 C         3.303286         0.116961        -0.321276
 C         2.237542         0.831923        -1.137466
 C         1.318405         0.221110        -0.045995
 C         2.276677        -0.979002        -0.115877
 O         2.524417        -1.557129         1.157743
 C         2.455958        -0.405784         2.022461
 C         2.483696         0.634862         0.924432
 O         2.573315         2.006503         1.275381
 H         5.246503        -0.487968         0.364967
 H         5.321930        -0.086992        -1.324696
 H         5.161881         1.144537        -0.049708
 H         2.386710         1.959937        -1.204705
 H         2.058974         0.432644        -2.072823
 H         0.238655         0.223557         0.075332
 H         2.155563        -1.781712        -0.830919
 H         1.642247        -0.435838         2.737367
 H         3.347880        -0.466764         2.622067
 H         2.998829         2.176041         2.073802
