19
Iteration:  2555
 C         4.798701         0.170750        -0.338225
 C         3.323055         0.147558        -0.348575
 C         2.231681         1.069121        -1.082939
 C         1.386403         0.265299        -0.098778
 C         2.271943        -1.056528        -0.232112
 O         2.428615        -1.644496         1.085285
 C         2.547082        -0.499711         1.981713
 C         2.500482         0.619379         0.956945
 O         2.591073         1.929179         1.510502
 H         5.406757         0.504905        -1.208617
 H         5.170432         0.850154         0.416344
 H         5.202095        -0.865079        -0.176798
 H         2.448818         2.022481        -0.800184
 H         2.142498         0.824466        -2.186060
 H         0.321398         0.076376         0.115131
 H         2.065780        -1.792652        -0.895568
 H         1.613552        -0.608821         2.533473
 H         3.460702        -0.519925         2.556837
 H         2.245572         2.706514         1.028408
