19
Iteration:  1183
 C         4.760246         0.222431        -0.348180
 C         3.328914         0.232458        -0.344872
 C         2.265145         0.760365        -1.302093
 C         1.310522         0.246470        -0.120418
 C         2.267425        -0.982224        -0.122254
 O         2.493494        -1.643217         1.200727
 C         2.526320        -0.397126         2.004294
 C         2.482902         0.671787         0.944126
 O         2.631237         1.918171         1.539323
 H         5.154835        -0.148805         0.672501
 H         5.136694        -0.485070        -1.167233
 H         5.265953         1.174793        -0.459417
 H         2.247484         1.903616        -1.503772
 H         2.068348         0.392574        -2.364129
 H         0.185293         0.283644         0.060481
 H         2.348665        -1.919970        -0.798918
 H         1.680506        -0.235060         2.672545
 H         3.319072        -0.671363         2.653574
 H         2.407962         2.602161         0.845824
