19
Iteration:  1282charge 0 multiplicity 1
 C         4.816757         0.066859        -0.365030
 C         3.326867         0.229424        -0.288409
 C         2.268342         0.829474        -1.304784
 C         1.408029         0.160668        -0.136352
 C         2.320024        -1.035893        -0.153611
 O         2.391838        -1.539786         1.212113
 C         2.653302        -0.347229         2.011076
 C         2.475696         0.669987         0.939887
 O         2.461517         1.956784         1.582597
 H         5.150651        -0.937486        -0.017032
 H         5.120927         0.211952        -1.437946
 H         5.371235         0.860950         0.149711
 H         2.189051         1.899608        -1.376285
 H         2.070959         0.316449        -2.315174
 H         0.279032         0.309012        -0.331680
 H         2.226025        -1.787820        -0.971918
 H         1.918960        -0.358619         2.842652
 H         3.672056        -0.273650         2.419191
 H         2.220539         2.556711         0.875518
