19
Iteration:  3541
 C         4.811123         0.226336        -0.404585
 C         3.308053         0.255049        -0.276041
 C         2.344378         1.201946        -0.979687
 C         1.395993         0.379236        -0.092820
 C         2.247941        -0.944997        -0.376776
 O         2.383147        -1.655164         0.878712
 C         2.456563        -0.731517         1.871896
 C         2.574799         0.560267         1.044319
 O         2.494492         1.738329         1.744764
 H         5.187498         0.728593        -1.333288
 H         5.417455         0.605295         0.445593
 H         5.285254        -0.715980        -0.609643
 H         2.607842         2.135594        -0.431898
 H         2.312716         1.225205        -2.020774
 H         0.338996         0.360637         0.193316
 H         2.020529        -1.591705        -1.310417
 H         1.600167        -0.678009         2.529312
 H         3.429581        -0.766093         2.350934
 H         3.185001         2.347553         1.746617
