19
Iteration:  4464charge 0 multiplicity 1
 C         4.750773         0.361729        -0.242229
 C         3.287091         0.276782        -0.260067
 C         2.343731         1.139348        -1.040102
 C         1.426183         0.390238        -0.048853
 C         2.240655        -0.883880        -0.332470
 O         2.334193        -1.773952         0.728187
 C         2.500648        -0.801680         1.907333
 C         2.486971         0.488381         1.075749
 O         2.724244         1.842085         1.713586
 H         5.138640         0.770998        -1.232364
 H         5.324275         0.885681         0.611277
 H         5.212323        -0.658988        -0.258798
 H         2.247630         2.228259        -1.075405
 H         2.300524         0.875017        -2.095277
 H         0.325639         0.572985         0.175093
 H         2.023749        -1.358229        -1.314563
 H         1.684188        -1.049469         2.617787
 H         3.489220        -0.990120         2.321864
 H         1.993926         2.320442         1.440651
