19
Iteration:  4424charge 0 multiplicity 1
 C         4.762053         0.243262        -0.289780
 C         3.335231         0.365598        -0.291126
 C         2.272422         1.205911        -0.949575
 C         1.426007         0.284246        -0.129050
 C         2.249523        -0.876607        -0.388298
 O         2.386003        -1.690353         0.782908
 C         2.468743        -0.704290         1.883451
 C         2.531032         0.568335         1.022973
 O         2.710741         1.669014         1.771827
 H         5.118590         0.032735        -1.353492
 H         5.112353         1.136725         0.141813
 H         5.011789        -0.552446         0.395569
 H         2.230567         2.247779        -0.579397
 H         2.101775         1.195498        -2.076500
 H         0.361391         0.374711        -0.013227
 H         2.192863        -1.609989        -1.289840
 H         1.573341        -0.814383         2.543156
 H         3.376137        -0.692538         2.517872
 H         1.946503         2.321968         1.503581
