19
Iteration:   436charge 0 multiplicity 1
 C         4.870204         0.103625        -0.336294
 C         3.256307         0.141745        -0.282382
 C         2.261795         0.896844        -1.211159
 C         1.401313         0.257426        -0.139077
 C         2.351548        -1.010879        -0.108140
 O         2.450963        -1.672430         1.176109
 C         2.484602        -0.406019         1.988520
 C         2.433163         0.651319         0.967162
 O         2.573562         2.000952         1.453107
 H         5.174224        -0.147831         0.668293
 H         5.196194        -0.549701        -1.151165
 H         5.113999         1.239958        -0.503863
 H         2.419796         2.038293        -1.482345
 H         2.073369         0.464767        -2.180100
 H         0.342994         0.244317        -0.092099
 H         2.141670        -1.741457        -0.839862
 H         1.658681        -0.333612         2.693144
 H         3.439973        -0.309128         2.536723
 H         2.444909         2.571752         0.719780
