19
Iteration:  1441charge 0 multiplicity 1
 C         4.820427         0.037117        -0.391977
 C         3.291881         0.237277        -0.245428
 C         2.241977         0.898972        -1.176432
 C         1.374917         0.195966        -0.123224
 C         2.349499        -1.024182        -0.114898
 O         2.523454        -1.576620         1.187439
 C         2.464160        -0.410181         1.985667
 C         2.451824         0.697676         0.961810
 O         2.549633         1.950572         1.413149
 H         5.279177        -0.716892         0.370848
 H         5.027915        -0.228481        -1.460558
 H         5.345865         1.088083        -0.121590
 H         2.091266         2.101528        -1.083784
 H         2.243265         0.604760        -2.210077
 H         0.327156         0.259075         0.198213
 H         2.462827        -1.797686        -0.991726
 H         1.587058        -0.439764         2.653497
 H         3.369991        -0.574735         2.624796
 H         2.266002         2.477198         0.642102
