19
Iteration:  3283charge 0 multiplicity 1
 C         4.730585         0.284841        -0.429961
 C         3.228378         0.379850        -0.213631
 C         2.236653         1.075082        -1.133368
 C         1.304999         0.246609        -0.232883
 C         2.330443        -0.872868        -0.326271
 O         2.327794        -1.662659         0.831112
 C         2.652709        -0.662596         1.887989
 C         2.410915         0.627623         1.046615
 O         2.742687         1.707214         2.004546
 H         4.992482         0.857887        -1.282752
 H         5.162801         0.487134         0.517866
 H         4.982504        -0.711555        -0.694171
 H         2.172849         2.140551        -1.074345
 H         2.296030         0.783752        -2.223152
 H         0.298840         0.075573        -0.118436
 H         2.427587        -1.671223        -1.112383
 H         1.898570        -0.825211         2.645810
 H         3.671374        -0.810826         2.170515
 H         3.330499         2.362327         1.600841
