19
Iteration:  4813
 C         4.944780         0.376634        -0.395023
 C         3.325489         0.320996        -0.274031
 C         2.123846         1.133383        -1.167562
 C         1.418754         0.339093        -0.083589
 C         2.207019        -0.891723        -0.286728
 O         2.443570        -1.758342         0.835900
 C         2.380636        -0.716507         1.914290
 C         2.580611         0.523528         1.016466
 O         2.670028         1.719082         1.864011
 H         4.908117         1.196063        -1.166958
 H         5.197456         0.841402         0.598282
 H         5.318080        -0.571303        -0.724924
 H         2.148128         2.214431        -1.013049
 H         1.973248         0.681051        -2.132941
 H         0.322846         0.364949         0.180962
 H         1.925593        -1.490366        -1.158332
 H         1.454103        -0.810403         2.413993
 H         3.204664        -0.917065         2.606988
 H         3.066700         2.428293         1.487037
