19
Iteration:  4400charge 0 multiplicity 1
 C         4.856872         0.187417        -0.362520
 C         3.330113         0.297238        -0.272186
 C         2.307164         1.171939        -1.175454
 C         1.342041         0.471804        -0.067772
 C         2.321263        -0.856524        -0.362075
 O         2.407635        -1.760304         0.734688
 C         2.515884        -0.752860         1.895943
 C         2.401817         0.620823         1.091266
 O         2.615114         1.730659         1.978327
 H         4.844731        -0.301665        -1.415050
 H         5.276588         1.234182        -0.369411
 H         5.349185        -0.424219         0.417172
 H         2.458860         2.289524        -1.304552
 H         2.238695         0.728349        -2.212249
 H         0.271680         0.473467         0.240694
 H         2.238467        -1.496725        -1.302517
 H         1.714646        -1.104608         2.583951
 H         3.482668        -0.649402         2.424946
 H         1.965160         2.386880         1.541471
