19
Iteration:   254
 C         4.763065         0.108676        -0.356617
 C         3.287516         0.141148        -0.262325
 C         2.333263         0.796794        -1.212348
 C         1.401758         0.182944        -0.116929
 C         2.305585        -0.981177        -0.166938
 O         2.359525        -1.601127         1.176363
 C         2.637732        -0.407656         2.016971
 C         2.524069         0.665770         0.951859
 O         2.460398         2.073518         1.445639
 H         5.228280        -0.204848         0.579861
 H         5.175204        -0.487978        -1.116259
 H         5.149928         1.056527        -0.496950
 H         2.310835         1.798431        -1.147099
 H         2.061281         0.452639        -2.231759
 H         0.300747         0.066781         0.052738
 H         2.154594        -1.754886        -1.035352
 H         1.812656        -0.279999         2.703737
 H         3.568392        -0.528489         2.548800
 H         3.179193         2.595518         0.922712
