19
Iteration:  3608charge 0 multiplicity 1
 C         4.820766         0.247191        -0.325635
 C         3.318844         0.247306        -0.365589
 C         2.283510         1.225062        -1.179763
 C         1.377695         0.399907        -0.100810
 C         2.265016        -0.923508        -0.396296
 O         2.404379        -1.703002         0.907565
 C         2.485184        -0.641419         1.904945
 C         2.442612         0.594217         0.947630
 O         2.670662         1.647989         1.938855
 H         5.263486         0.655365        -1.233928
 H         5.032701         0.532938         0.744855
 H         5.076478        -0.770456        -0.287758
 H         2.440997         2.276487        -0.856074
 H         2.187209         1.014632        -2.206135
 H         0.323280         0.512657         0.108014
 H         2.026710        -1.840843        -1.126775
 H         1.738516        -0.697344         2.694094
 H         3.523896        -0.804206         2.225957
 H         2.368840         2.552939         1.555228
