19
Iteration:  4502charge 0 multiplicity 1
 C         4.900324         0.244210        -0.401622
 C         3.350409         0.309720        -0.291746
 C         2.244080         1.206013        -1.178199
 C         1.446111         0.431620        -0.153997
 C         2.330085        -0.987513        -0.370133
 O         2.325382        -1.713675         0.849223
 C         2.503942        -0.627171         1.930954
 C         2.409508         0.590257         1.028112
 O         2.609074         1.637088         1.972482
 H         5.368741         0.774276        -1.299709
 H         5.362577         0.685029         0.449927
 H         5.007951        -0.844611        -0.465444
 H         2.177761         2.306505        -1.054021
 H         2.253784         0.881287        -2.269173
 H         0.399984         0.510403        -0.091035
 H         2.082875        -1.691938        -1.176845
 H         1.857523        -0.602219         2.835912
 H         3.570504        -0.755932         2.235800
 H         1.857983         2.292833         1.904341
