19
Iteration:  4382
 C         4.842662         0.182813        -0.502141
 C         3.362110         0.304711        -0.241943
 C         2.371616         1.069638        -1.117432
 C         1.450839         0.468769        -0.063017
 C         2.235006        -0.793636        -0.310038
 O         2.419963        -1.659511         0.758240
 C         2.543218        -0.740465         1.814185
 C         2.457759         0.600763         1.118385
 O         2.442652         1.672238         2.016476
 H         5.051168        -0.523752        -1.312983
 H         5.282623         1.111363        -0.652981
 H         5.256978        -0.236574         0.391365
 H         2.390956         2.129646        -1.096600
 H         2.250115         0.487378        -2.057002
 H         0.386281         0.616707        -0.116679
 H         2.032010        -1.249233        -1.346294
 H         1.733066        -0.800146         2.574929
 H         3.486582        -1.072777         2.312309
 H         2.271846         2.563543         1.515300
