19
Iteration:   565
 C         4.799928         0.069999        -0.309658
 C         3.299859         0.197697        -0.219570
 C         2.261326         0.911600        -1.160270
 C         1.332155         0.233516        -0.067374
 C         2.321472        -1.070689        -0.137617
 O         2.540118        -1.511743         1.094854
 C         2.494004        -0.397696         2.030879
 C         2.490154         0.668066         0.964770
 O         2.537622         1.903548         1.372285
 H         5.071049        -0.856331         0.121031
 H         5.090890        -0.049014        -1.371560
 H         5.407664         0.924559         0.100887
 H         2.441155         2.042893        -1.254652
 H         2.101348         0.526002        -2.276262
 H         0.150801         0.306606         0.002306
 H         2.359825        -1.790393        -0.903154
 H         1.617142        -0.553050         2.707470
 H         3.405197        -0.222369         2.648401
 H         2.231380         2.400934         0.515092
