19
Iteration:   339
 C         4.831182         0.113782        -0.471627
 C         3.339469         0.196456        -0.247660
 C         2.288362         0.932762        -1.221382
 C         1.375679         0.302507        -0.080863
 C         2.383843        -1.046752        -0.005941
 O         2.484498        -1.620722         1.227872
 C         2.344897        -0.492422         2.033415
 C         2.448050         0.672243         0.926295
 O         2.615695         1.983634         1.328409
 H         5.063212        -0.708493         0.182590
 H         5.092053        -0.053523        -1.514988
 H         5.168482         1.154234        -0.003733
 H         2.375408         2.084248        -1.237686
 H         2.170753         0.412950        -2.192754
 H         0.359794         0.140417         0.241122
 H         2.479274        -1.931684        -0.648972
 H         1.373233        -0.558587         2.566971
 H         3.185303        -0.576032         2.785381
 H         2.102573         2.437499         0.709525
