19
Iteration:  1256
 C         4.862459         0.108649        -0.456564
 C         3.336646         0.173855        -0.292395
 C         2.312981         0.832764        -1.220415
 C         1.406794         0.217980        -0.049271
 C         2.332207        -1.041757        -0.116667
 O         2.355184        -1.620534         1.197975
 C         2.646181        -0.396554         2.029147
 C         2.422148         0.684658         0.948879
 O         2.400147         2.011075         1.479859
 H         5.300075        -0.830583        -0.146394
 H         5.117524         0.319864        -1.474894
 H         5.340166         0.864301         0.135227
 H         2.507949         1.883640        -1.240722
 H         2.225103         0.497561        -2.285172
 H         0.294456         0.411169        -0.132129
 H         2.269025        -1.782552        -0.962157
 H         1.876933        -0.532103         2.826631
 H         3.638443        -0.298376         2.518653
 H         2.605162         2.609005         0.785725
