19
Iteration:  4508charge 0 multiplicity 1
 C         4.878243         0.182816        -0.436165
 C         3.368424         0.353194        -0.275623
 C         2.251674         1.266404        -1.186474
 C         1.424195         0.400169        -0.156416
 C         2.323734        -0.987260        -0.418836
 O         2.344515        -1.727476         0.910086
 C         2.515224        -0.610497         1.910483
 C         2.438743         0.581793         1.082849
 O         2.562389         1.641332         1.953701
 H         5.361785         0.750634        -1.286382
 H         5.452028         0.718112         0.395805
 H         5.181264        -0.876666        -0.491631
 H         2.391117         2.360987        -1.163812
 H         2.158437         1.124585        -2.249720
 H         0.283789         0.390744        -0.026869
 H         2.152475        -1.795672        -1.210982
 H         1.720977        -0.743235         2.659760
 H         3.490445        -0.803781         2.354640
 H         1.996683         2.349463         1.939925
