19
Iteration:  2285charge 0 multiplicity 1
 C         4.804058         0.197668        -0.408364
 C         3.269693         0.220954        -0.268136
 C         2.320415         0.694508        -1.268705
 C         1.369467         0.204442        -0.098759
 C         2.302219        -0.940988        -0.166703
 O         2.337512        -1.597401         1.105649
 C         2.622957        -0.478433         1.954224
 C         2.430725         0.721999         1.022247
 O         2.581955         1.971908         1.614459
 H         5.266760         0.181951         0.558006
 H         5.285369        -0.505356        -1.105136
 H         5.148828         1.166829        -0.771979
 H         2.333107         1.856745        -1.446714
 H         2.444264         0.062399        -2.186781
 H         0.354637         0.368749         0.021891
 H         2.095278        -1.766122        -1.003768
 H         1.820483        -0.499203         2.697144
 H         3.560365        -0.539575         2.602256
 H         2.642160         2.586768         0.905282
