19
Iteration:  4966
 C         4.905429         0.437550        -0.455421
 C         3.353491         0.357237        -0.343292
 C         2.239585         1.111057        -1.107822
 C         1.465566         0.382990         0.010615
 C         2.245339        -0.957489        -0.320739
 O         2.277214        -1.820553         0.837926
 C         2.455722        -0.774642         1.839111
 C         2.568308         0.581100         1.046579
 O         2.589873         1.717694         1.928644
 H         5.257427        -0.154318        -1.375723
 H         5.178288         1.562440        -0.606263
 H         5.498150         0.320637         0.435950
 H         2.189159         2.199440        -1.185652
 H         1.844342         0.836208        -2.078482
 H         0.387988         0.303191         0.243091
 H         1.970813        -1.554508        -1.170139
 H         1.587855        -0.662447         2.477664
 H         3.369854        -0.908239         2.491855
 H         3.141511         2.379776         1.453538
