19
Iteration:   883charge 0 multiplicity 1
 C         4.815426         0.119153        -0.419383
 C         3.362430         0.151417        -0.387167
 C         2.253410         0.905483        -1.152201
 C         1.378845         0.200651        -0.105282
 C         2.351077        -0.980976        -0.165882
 O         2.329087        -1.641607         1.173326
 C         2.644029        -0.406736         2.038233
 C         2.488684         0.649004         1.013122
 O         2.475268         1.999162         1.488877
 H         5.146479        -0.114567         0.601561
 H         5.119027        -0.628480        -1.112786
 H         5.232315         1.144832        -0.699695
 H         2.506165         1.923332        -1.119172
 H         2.323113         0.422764        -2.233669
 H         0.197306         0.427482        -0.183032
 H         2.230411        -1.872788        -0.838403
 H         2.050134        -0.640605         2.917882
 H         3.666163        -0.279516         2.366111
 H         2.229587         2.587163         0.827605
