19
Iteration:  1984charge 0 multiplicity 1
 C         4.752264         0.066741        -0.463398
 C         3.332981         0.284472        -0.211030
 C         2.312914         0.855225        -1.198384
 C         1.431207         0.190889        -0.099685
 C         2.313790        -1.021831        -0.134583
 O         2.471857        -1.622080         1.120910
 C         2.488870        -0.401949         2.018571
 C         2.486872         0.669855         0.962532
 O         2.494421         1.987209         1.509857
 H         5.137199        -0.644549         0.235151
 H         4.832437        -0.271122        -1.460233
 H         5.354550         0.926712        -0.482922
 H         2.735049         1.928524        -1.297402
 H         2.266099         0.558251        -2.181085
 H         0.349659         0.377438         0.239588
 H         2.377418        -1.837339        -0.872597
 H         1.723231        -0.293974         2.816754
 H         3.452677        -0.480086         2.460759
 H         1.987466         2.521089         0.940798
