19
Iteration:   298charge 0 multiplicity 1
 C         4.758278         0.201271        -0.343168
 C         3.279319         0.108577        -0.340585
 C         2.292309         0.788107        -1.299113
 C         1.389424         0.194258        -0.134910
 C         2.312278        -1.045155        -0.106296
 O         2.327716        -1.561002         1.220130
 C         2.579989        -0.396047         2.001733
 C         2.539864         0.726711         0.931078
 O         2.603340         1.956993         1.528136
 H         5.252107        -0.331455         0.481551
 H         5.200014        -0.129205        -1.241694
 H         5.093259         1.179672        -0.248049
 H         2.401551         1.773837        -1.461022
 H         2.365168         0.247447        -2.255414
 H         0.258241         0.178341        -0.124145
 H         2.200865        -1.869587        -0.932038
 H         1.763587        -0.298083         2.737093
 H         3.532154        -0.459702         2.545820
 H         2.319904         2.786469         1.001129
