19
Iteration:   244
 C         4.727788         0.086374        -0.413413
 C         3.298145         0.134695        -0.269055
 C         2.286536         0.923564        -1.209081
 C         1.480781         0.214385        -0.096823
 C         2.340501        -1.055696        -0.143454
 O         2.433134        -1.650015         1.217445
 C         2.477363        -0.408829         2.004372
 C         2.518272         0.696002         0.999348
 O         2.476557         2.045097         1.383015
 H         5.045544        -0.283080         0.634414
 H         5.119954        -0.593333        -1.140429
 H         5.142800         0.996442        -0.524935
 H         2.270888         1.961306        -1.124804
 H         2.036796         0.499992        -2.233349
 H         0.367457         0.173604         0.133154
 H         2.524497        -1.724221        -1.088470
 H         1.768579        -0.341819         2.798290
 H         3.441943        -0.290609         2.451223
 H         3.270588         2.541671         1.000155
