19
Iteration:  1023
 C         4.764670         0.258998        -0.339981
 C         3.301284         0.131160        -0.283304
 C         2.301591         0.867561        -1.204522
 C         1.413016         0.195086        -0.090572
 C         2.298055        -1.041329        -0.141702
 O         2.320663        -1.579645         1.185600
 C         2.658189        -0.465341         2.006087
 C         2.496020         0.695551         0.994383
 O         2.518213         1.928840         1.373994
 H         5.038807        -0.699518         0.105664
 H         5.100151         0.322691        -1.401856
 H         5.232876         0.921950         0.484164
 H         2.284639         2.004168        -1.170181
 H         2.164244         0.366571        -2.169619
 H         0.328126         0.494969        -0.104172
 H         2.293139        -1.793373        -0.975033
 H         2.085919        -0.618521         2.996299
 H         3.756644        -0.401673         2.422341
 H         2.595960         2.461085         0.550108
