19
Iteration:  4567charge 0 multiplicity 1
 C         4.811570         0.190530        -0.414159
 C         3.303329         0.355531        -0.241008
 C         2.275617         1.241389        -0.961208
 C         1.386242         0.393068        -0.081422
 C         2.321273        -0.878350        -0.330465
 O         2.443210        -1.765753         0.759945
 C         2.492471        -0.838493         1.925952
 C         2.493464         0.605603         1.100659
 O         2.509533         1.795457         1.720011
 H         5.173878        -0.120009        -1.479952
 H         5.300117         1.036555         0.069470
 H         5.116209        -0.609137         0.325371
 H         2.294627         2.211103        -0.551886
 H         2.301847         1.168435        -2.041617
 H         0.325749         0.380120        -0.086542
 H         2.075472        -1.421632        -1.228364
 H         1.623770        -1.015246         2.554795
 H         3.404412        -1.012456         2.504982
 H         3.230813         2.416768         1.244936
