19
Iteration:  2733
 C         4.801183         0.187630        -0.347830
 C         3.313486         0.254328        -0.309434
 C         2.246745         0.894610        -1.202078
 C         1.327921         0.342964        -0.070885
 C         2.328067        -0.919161        -0.216487
 O         2.407280        -1.656515         1.015966
 C         2.578471        -0.548312         1.952857
 C         2.394022         0.695423         1.012536
 O         2.593116         1.858023         1.626423
 H         5.164032        -0.755914         0.031759
 H         5.002310         0.175384        -1.452654
 H         5.222483         1.194416        -0.077970
 H         2.142919         2.028092        -1.270900
 H         2.084237         0.440403        -2.231744
 H         0.229732         0.237816        -0.052779
 H         2.372659        -1.616792        -1.174560
 H         1.825167        -0.791877         2.731606
 H         3.641892        -0.600398         2.389578
 H         3.526005         1.924241         1.981459
