19
Iteration:  3769charge 0 multiplicity 1
 C         4.822185         0.263658        -0.313221
 C         3.372649         0.183143        -0.331901
 C         2.329631         1.309307        -0.950077
 C         1.395362         0.438081        -0.141150
 C         2.203739        -0.879478        -0.302278
 O         2.333921        -1.720897         0.814758
 C         2.545750        -0.760681         1.888279
 C         2.442585         0.518505         1.035505
 O         2.630498         1.664686         1.732610
 H         5.263565        -0.643416        -0.850416
 H         5.144470         1.182711        -0.778015
 H         5.278313         0.499877         0.664818
 H         2.535760         2.269544        -0.459449
 H         2.215898         1.397111        -1.995619
 H         0.316803         0.498531        -0.127494
 H         2.047233        -1.537393        -1.212162
 H         1.838105        -0.942891         2.710690
 H         3.605260        -0.745788         2.276156
 H         2.083253         2.381195         1.361455
