19
Iteration:  1103
 C         4.845427         0.102748        -0.508865
 C         3.359898         0.166501        -0.250150
 C         2.291254         0.870052        -1.139631
 C         1.366253         0.219943        -0.091863
 C         2.379382        -1.053168        -0.140543
 O         2.503438        -1.641028         1.170379
 C         2.451106        -0.402180         1.983352
 C         2.408790         0.743061         0.966443
 O         2.521618         2.000137         1.523481
 H         5.161957        -0.384578         0.422978
 H         5.105591        -0.579219        -1.295191
 H         5.254876         1.126340        -0.670053
 H         2.255367         1.895640        -1.266933
 H         2.124498         0.420119        -2.184241
 H         0.206706         0.445039        -0.052073
 H         2.094225        -1.829252        -0.826413
 H         1.583218        -0.389665         2.625224
 H         3.321105        -0.514496         2.530765
 H         2.375277         2.648238         0.771960
