19
Iteration:  4890charge 0 multiplicity 1
 C         4.845672         0.152360        -0.354855
 C         3.308399         0.206994        -0.349493
 C         2.177548         1.230553        -0.954302
 C         1.502404         0.364269         0.085649
 C         2.279354        -0.797994        -0.398109
 O         2.426548        -1.703032         0.765954
 C         2.608115        -0.715607         1.876751
 C         2.571910         0.559438         1.084911
 O         2.463973         1.759949         1.703261
 H         5.086305         0.162304        -1.458995
 H         5.238328         0.990954         0.281553
 H         5.214769        -0.750624         0.124120
 H         2.311074         2.268722        -0.671490
 H         1.921216         1.148078        -2.018946
 H         0.423788         0.259136         0.327486
 H         2.034269        -1.303003        -1.305022
 H         1.805122        -0.773124         2.573392
 H         3.538488        -0.942403         2.442786
 H         1.765530         2.367870         1.279727
