19
Iteration:  4445
 C         4.893554         0.297313        -0.266644
 C         3.283859         0.246803        -0.258093
 C         2.227714         1.289223        -0.935012
 C         1.357571         0.373959        -0.019185
 C         2.300622        -0.906355        -0.389102
 O         2.368262        -1.764243         0.819442
 C         2.468081        -0.820247         1.850011
 C         2.426074         0.558543         1.022303
 O         2.734126         1.749163         1.625156
 H         5.416564         0.592368        -1.298270
 H         5.117682         1.011736         0.546381
 H         5.389018        -0.589529         0.150860
 H         2.489154         2.320866        -0.630733
 H         2.035195         1.357269        -2.050053
 H         0.274260         0.263042         0.021977
 H         2.151044        -1.626977        -1.305122
 H         1.609013        -0.670587         2.547287
 H         3.391244        -1.015716         2.417231
 H         2.105625         2.460868         1.402235
