19
Iteration:  4051charge 0 multiplicity 1
 C         4.892277         0.180558        -0.417596
 C         3.367451         0.329583        -0.290221
 C         2.200221         1.202201        -1.170429
 C         1.453830         0.358960        -0.094141
 C         2.310872        -0.831340        -0.362255
 O         2.421304        -1.648020         0.835854
 C         2.396355        -0.778235         1.858589
 C         2.597697         0.572002         1.034573
 O         2.502414         1.651774         1.996412
 H         4.960925        -0.617894        -1.179676
 H         5.469049         1.051616        -0.569719
 H         5.274119        -0.203343         0.528586
 H         2.182302         2.233097        -0.948261
 H         1.945337         1.163343        -2.248298
 H         0.435539         0.551900         0.215048
 H         2.137955        -1.392423        -1.304810
 H         1.505035        -0.587565         2.474022
 H         3.253421        -0.937220         2.447467
 H         2.538381         2.608539         1.545528
