19
Iteration:  1249
 C         4.855853         0.147907        -0.449969
 C         3.313891         0.177880        -0.242627
 C         2.344484         0.858677        -1.203732
 C         1.440912         0.253122        -0.094100
 C         2.327713        -1.086639        -0.111472
 O         2.402918        -1.658828         1.218135
 C         2.564088        -0.426867         2.008692
 C         2.459254         0.677630         0.962321
 O         2.413689         2.017251         1.453693
 H         5.297144        -0.857510        -0.145977
 H         4.920055         0.194713        -1.582609
 H         5.421237         0.844866         0.188836
 H         2.211991         1.995296        -1.353043
 H         1.957991         0.529472        -2.267936
 H         0.284034         0.522824        -0.026046
 H         2.142118        -1.769377        -1.022339
 H         1.924642        -0.227173         2.881016
 H         3.577569        -0.371453         2.442331
 H         2.622937         2.526554         0.691286
