19
Iteration:  4194
 C         4.844922         0.168066        -0.459879
 C         3.369064         0.314946        -0.244678
 C         2.328965         1.227888        -1.019113
 C         1.377962         0.327564        -0.158625
 C         2.323397        -0.871348        -0.311509
 O         2.397926        -1.637117         0.842555
 C         2.463860        -0.737700         1.865330
 C         2.443393         0.583186         1.034332
 O         2.511455         1.726790         1.925656
 H         5.112112         0.417959        -1.525366
 H         5.616813         0.526220         0.193916
 H         4.880599        -0.921335        -0.438448
 H         2.328508         2.293839        -0.823146
 H         2.150295         1.085874        -2.123219
 H         0.293589         0.194367        -0.172568
 H         2.406621        -1.547350        -1.257803
 H         1.536681        -0.845856         2.443999
 H         3.305533        -0.833699         2.540617
 H         3.098964         2.387955         1.382998
