19
Iteration:  4665charge 0 multiplicity 1
 C         4.848583         0.293348        -0.457801
 C         3.307573         0.347745        -0.234408
 C         2.238722         1.370426        -0.957164
 C         1.407133         0.235943        -0.168039
 C         2.319354        -0.849588        -0.352760
 O         2.346765        -1.750702         0.892857
 C         2.485856        -0.801852         1.897017
 C         2.486619         0.495309         1.076069
 O         2.691599         1.745434         1.675376
 H         5.054460        -0.292818        -1.408289
 H         5.104660         1.314042        -0.648159
 H         5.329988        -0.111222         0.455052
 H         2.353836         2.304607        -0.508858
 H         2.308790         1.540661        -2.021897
 H         0.391931         0.078008         0.068072
 H         2.106920        -1.506821        -1.160373
 H         1.521340        -0.828960         2.472497
 H         3.296633        -0.881499         2.594258
 H         1.901584         1.710845         2.396480
