19
Iteration:  2834charge 0 multiplicity 1
 C         4.837186         0.077321        -0.388740
 C         3.326296         0.265269        -0.376581
 C         2.206868         0.902946        -1.220812
 C         1.360472         0.391029        -0.043453
 C         2.273515        -0.871416        -0.237691
 O         2.578504        -1.569066         0.958778
 C         2.530073        -0.595047         1.950672
 C         2.414332         0.638379         1.026697
 O         2.532750         1.857116         1.706404
 H         5.296294         0.613315         0.465092
 H         5.051960        -1.010970        -0.391970
 H         5.146366         0.520696        -1.331222
 H         2.200936         2.058066        -1.226783
 H         2.023728         0.406415        -2.191765
 H         0.241263         0.529413        -0.004873
 H         1.760753        -1.492100        -1.159919
 H         1.578956        -0.623653         2.567945
 H         3.461315        -0.553589         2.647191
 H         3.180569         1.593791         2.432226
