19
Iteration:  2303
 C         4.784601         0.164992        -0.432454
 C         3.273159         0.164057        -0.276110
 C         2.261593         0.871735        -1.282896
 C         1.394722         0.283357        -0.164622
 C         2.363393        -1.007677        -0.146021
 O         2.465298        -1.635622         1.157700
 C         2.469453        -0.449885         2.010868
 C         2.462997         0.688571         0.967730
 O         2.592226         1.942459         1.621212
 H         5.358946         0.152065         0.540136
 H         5.024991        -0.829748        -0.788201
 H         5.222952         0.981635        -1.105733
 H         2.206585         1.931583        -1.402604
 H         1.979306         0.420377        -2.229235
 H         0.235536         0.107969        -0.042139
 H         2.411939        -1.801199        -0.849744
 H         1.603513        -0.408988         2.753341
 H         3.443973        -0.378485         2.482373
 H         2.578286         2.680085         1.042828
