19
Iteration:  2537charge 0 multiplicity 1
 C         4.846968         0.113941        -0.347619
 C         3.288590         0.228316        -0.285098
 C         2.296880         0.943831        -1.208623
 C         1.402756         0.293022        -0.062114
 C         2.288878        -0.956537        -0.180896
 O         2.369333        -1.640059         1.067680
 C         2.606283        -0.500561         1.938873
 C         2.511388         0.641737         1.008461
 O         2.520265         1.880307         1.558144
 H         5.177859         0.616660        -1.235802
 H         5.189252         0.746575         0.479453
 H         5.211504        -0.871090        -0.380381
 H         2.264341         2.090058        -1.197004
 H         1.970057         0.541738        -2.176031
 H         0.388792         0.514816         0.092990
 H         2.248470        -1.640544        -1.135262
 H         1.967862        -0.405123         2.842444
 H         3.617308        -0.627205         2.364147
 H         1.933688         2.367298         0.954260
