19
Iteration:  1391
 C         4.836269         0.228265        -0.455202
 C         3.327554         0.168418        -0.212233
 C         2.323567         0.770589        -1.292532
 C         1.425233         0.278665        -0.150455
 C         2.300537        -1.040380        -0.138761
 O         2.352792        -1.624936         1.192462
 C         2.618511        -0.400886         2.009475
 C         2.441064         0.677137         0.924894
 O         2.470014         1.959646         1.601974
 H         5.327831        -0.015209         0.463882
 H         5.010779        -0.578485        -1.154919
 H         5.230650         1.147324        -0.710675
 H         2.278901         1.739028        -1.586289
 H         2.110230         0.144552        -2.246580
 H         0.249284         0.283695        -0.125191
 H         2.136393        -1.731916        -0.964014
 H         1.909742        -0.310319         2.879769
 H         3.622115        -0.499432         2.489284
 H         2.784119         2.630912         1.005744
