19
Iteration:  2769
 C         4.896878         0.277721        -0.465242
 C         3.331129         0.176272        -0.324417
 C         2.297627         1.017327        -1.050432
 C         1.426728         0.316691         0.005727
 C         2.285414        -0.984894        -0.223575
 O         2.258853        -1.753507         1.046800
 C         2.594889        -0.620553         1.994686
 C         2.517369         0.637299         0.958979
 O         2.454094         1.906369         1.497048
 H         5.535281         0.198805         0.412022
 H         5.227632        -0.315334        -1.315989
 H         5.097388         1.299829        -0.700828
 H         2.411273         2.101247        -0.646689
 H         2.152915         1.050293        -2.117563
 H         0.364065         0.657819         0.208152
 H         1.975557        -1.742612        -1.204970
 H         1.785062        -0.679504         2.740349
 H         3.505351        -0.717729         2.539763
 H         3.428275         2.198801         1.605631
