19
Iteration:  2667charge 0 multiplicity 1
 C         4.890979         0.119032        -0.467090
 C         3.302769         0.212707        -0.261399
 C         2.315159         1.069624        -1.067783
 C         1.371907         0.289073        -0.035026
 C         2.286718        -1.000446        -0.210185
 O         2.399961        -1.720098         1.001624
 C         2.594201        -0.618502         2.007798
 C         2.443971         0.617552         1.088755
 O         2.439097         2.062541         1.436859
 H         5.048549        -0.867802        -0.874658
 H         5.063668         0.797438        -1.309590
 H         5.578395         0.365522         0.359437
 H         2.045004         2.050312        -0.825625
 H         2.132570         0.720320        -2.126741
 H         0.315101         0.398883         0.025508
 H         2.436797        -1.743759        -1.123475
 H         1.856776        -0.666605         2.793725
 H         3.606408        -0.613326         2.285460
 H         3.117555         2.160228         2.089564
