19
Iteration:  3355charge 0 multiplicity 1
 C         4.802434         0.214598        -0.490058
 C         3.283289         0.328438        -0.219248
 C         2.272516         1.247424        -0.954780
 C         1.363714         0.307496        -0.081820
 C         2.358820        -0.888023        -0.306381
 O         2.367182        -1.730483         0.800028
 C         2.567883        -0.763856         1.888197
 C         2.430941         0.521143         1.112715
 O         2.659380         1.827685         1.708599
 H         4.945599        -0.478623        -1.379061
 H         5.248445         1.261634        -0.573581
 H         5.313199        -0.333130         0.364610
 H         2.231584         2.327208        -0.570497
 H         2.306718         1.193803        -2.021212
 H         0.257195         0.491623         0.107005
 H         2.335606        -1.333373        -1.276545
 H         1.748664        -1.126206         2.526175
 H         3.592845        -0.979606         2.289172
 H         1.747327         2.155907         1.982521
