19
Iteration:  3553
 C         4.828020         0.200747        -0.446651
 C         3.340390         0.205143        -0.281969
 C         2.358947         1.241038        -0.922111
 C         1.444476         0.373936        -0.029005
 C         2.281289        -0.861541        -0.316544
 O         2.382980        -1.780866         0.805822
 C         2.481981        -0.728667         1.892226
 C         2.477218         0.547324         1.065055
 O         2.499290         1.838153         1.716003
 H         5.064579         0.948525        -1.226619
 H         5.193758         0.616418         0.550771
 H         5.143982        -0.788506        -0.560810
 H         2.359187         2.325850        -0.771270
 H         2.175002         1.153976        -1.960149
 H         0.365887         0.475558        -0.038241
 H         2.081560        -1.562648        -1.239627
 H         1.559014        -0.774057         2.482150
 H         3.236392        -1.061131         2.618262
 H         3.256677         2.350621         1.237182
