19
Iteration:  1943
 C         4.780898         0.144676        -0.387029
 C         3.289714         0.094740        -0.392138
 C         2.256586         0.828574        -1.291970
 C         1.401940         0.301934        -0.093723
 C         2.321005        -1.035927        -0.137652
 O         2.544143        -1.549874         1.174334
 C         2.476160        -0.386350         2.027403
 C         2.452609         0.713743         0.926868
 O         2.563756         1.914522         1.584809
 H         4.911462        -0.935962         0.011787
 H         5.356677         0.142042        -1.307264
 H         5.286873         0.814711         0.425906
 H         2.123890         1.947545        -1.530009
 H         1.835510         0.377011        -2.279313
 H         0.315564         0.012858         0.140517
 H         2.342794        -1.722858        -0.885765
 H         1.551151        -0.560429         2.621238
 H         3.288592        -0.255141         2.778973
 H         2.623372         2.758483         1.033479
