19
Iteration:  3081charge 0 multiplicity 1
 C         4.823167         0.291173        -0.475620
 C         3.276242         0.218912        -0.405390
 C         2.257300         1.077837        -1.086188
 C         1.448292         0.309765        -0.050620
 C         2.261356        -0.948370        -0.293858
 O         2.469758        -1.652371         0.931372
 C         2.403845        -0.635821         1.981907
 C         2.506415         0.583636         0.993788
 O         2.676987         1.753940         1.827399
 H         5.282246        -0.606101        -0.055348
 H         5.259463         0.395618        -1.495814
 H         5.084698         1.176617         0.156108
 H         2.188695         2.239619        -0.970101
 H         2.010103         0.816726        -2.140487
 H         0.267661         0.306046         0.036973
 H         1.996957        -1.682407        -1.043080
 H         1.388871        -0.535802         2.496313
 H         3.264124        -0.654213         2.673678
 H         2.303793         2.488967         1.211134
