19
Iteration:   106
 C         4.816064         0.102656        -0.366035
 C         3.311158         0.088471        -0.302069
 C         2.238132         0.824953        -1.110541
 C         1.316795         0.222198        -0.042692
 C         2.312704        -0.956332        -0.138446
 O         2.530208        -1.548005         1.148077
 C         2.445548        -0.390285         2.005733
 C         2.467589         0.645033         0.919972
 O         2.572552         2.001857         1.280281
 H         5.351029        -0.509969         0.369423
 H         5.412224        -0.129524        -1.296492
 H         5.096281         1.197229        -0.059857
 H         2.256299         1.998406        -1.243665
 H         2.002365         0.346635        -2.094668
 H         0.230225         0.257579         0.127924
 H         2.189760        -1.785818        -0.824656
 H         1.577027        -0.410401         2.737374
 H         3.362593        -0.482722         2.668515
 H         3.084750         2.166779         2.132748
