19
Iteration:  4389
 C         4.829796         0.157716        -0.461537
 C         3.338845         0.353759        -0.209498
 C         2.353858         1.032140        -1.139440
 C         1.471055         0.481256        -0.052119
 C         2.230197        -0.819544        -0.360716
 O         2.431584        -1.692160         0.702337
 C         2.500791        -0.739135         1.900810
 C         2.431806         0.600519         1.109654
 O         2.498183         1.698720         2.007007
 H         5.259916        -0.394141        -1.387493
 H         5.300455         1.170796        -0.624812
 H         5.406840        -0.281580         0.374505
 H         2.396003         2.159718        -1.234687
 H         2.056497         0.609259        -2.140159
 H         0.384558         0.689065        -0.100771
 H         2.048244        -1.342792        -1.353042
 H         1.813840        -1.036388         2.727536
 H         3.543781        -0.755586         2.269786
 H         2.138967         2.614142         1.655792
