19
Iteration:  4892
 C         4.847051         0.144637        -0.358200
 C         3.327993         0.222479        -0.339121
 C         2.179672         1.222762        -0.943695
 C         1.469865         0.339088         0.081868
 C         2.266192        -0.790486        -0.399821
 O         2.435281        -1.697405         0.769011
 C         2.616950        -0.721100         1.873353
 C         2.553468         0.567389         1.078030
 O         2.478002         1.768212         1.715215
 H         5.115782         0.136157        -1.460342
 H         5.217208         0.958408         0.208076
 H         5.269824        -0.700064         0.164340
 H         2.325955         2.273508        -0.732125
 H         1.896877         1.194271        -2.035931
 H         0.418227         0.277196         0.214764
 H         2.032326        -1.296726        -1.327489
 H         1.762572        -0.727111         2.546807
 H         3.494001        -0.957395         2.470772
 H         1.828658         2.230836         1.265258
