19
Iteration:   752charge 0 multiplicity 1
 C         4.885467         0.121605        -0.390904
 C         3.317142         0.193734        -0.290238
 C         2.287215         0.825381        -1.269969
 C         1.375233         0.248689        -0.129279
 C         2.277045        -1.035074        -0.139061
 O         2.398192        -1.543824         1.202618
 C         2.599196        -0.457927         2.001895
 C         2.485579         0.698276         0.916984
 O         2.486873         1.968032         1.557133
 H         5.290848        -0.780648         0.032547
 H         5.195194         0.133461        -1.405761
 H         5.310515         1.069163         0.042584
 H         2.138461         1.858724        -1.342860
 H         2.268644         0.362470        -2.369083
 H         0.239861         0.228677         0.123598
 H         2.244273        -1.875983        -0.787875
 H         1.899172        -0.369017         2.864098
 H         3.624403        -0.735856         2.417595
 H         2.006883         2.536736         0.857038
