19
Iteration:  4203charge 0 multiplicity 1
 C         4.863839         0.137331        -0.439618
 C         3.356725         0.356544        -0.262844
 C         2.288425         1.288933        -1.007951
 C         1.478423         0.343176        -0.111629
 C         2.321959        -0.921350        -0.367437
 O         2.389555        -1.728210         0.862052
 C         2.443631        -0.706022         1.857536
 C         2.524038         0.580262         1.098084
 O         2.467557         1.722032         1.832131
 H         5.111009         0.627559        -1.366342
 H         5.470895         0.649150         0.216501
 H         4.992459        -0.947737        -0.557093
 H         2.252683         2.343540        -0.731142
 H         2.127012         1.103941        -2.065921
 H         0.354230         0.368770        -0.064328
 H         1.953979        -1.600528        -1.167531
 H         1.518067        -0.571147         2.475836
 H         3.282205        -0.993033         2.509361
 H         3.001659         2.509204         1.428341
