19
Iteration:   609charge 0 multiplicity 1
 C         4.839220         0.215011        -0.382287
 C         3.296442         0.202440        -0.300847
 C         2.280000         0.788956        -1.259501
 C         1.397902         0.204644        -0.133169
 C         2.297738        -1.059387        -0.142283
 O         2.427148        -1.560489         1.162415
 C         2.490334        -0.416853         2.012042
 C         2.489833         0.639112         0.986538
 O         2.595399         1.968177         1.532108
 H         5.220403        -0.466376         0.345496
 H         5.153687        -0.186784        -1.342275
 H         5.286774         1.248315        -0.272451
 H         2.143644         1.845257        -1.414125
 H         2.178871         0.183427        -2.231502
 H         0.242021         0.291579         0.055849
 H         2.213180        -1.826690        -0.860736
 H         1.580343        -0.205449         2.632300
 H         3.345472        -0.598828         2.702986
 H         2.285074         2.652856         0.885753
