19
Iteration:  4223
 C         4.889202         0.245034        -0.427134
 C         3.383546         0.195547        -0.322748
 C         2.353307         1.205393        -0.950081
 C         1.403627         0.398850         0.043327
 C         2.244500        -0.851632        -0.331032
 O         2.341177        -1.728784         0.781867
 C         2.485868        -0.761953         1.916419
 C         2.548328         0.531800         1.020959
 O         2.443004         1.784238         1.714817
 H         5.361003         0.836584        -1.167944
 H         5.276416         0.712963         0.490415
 H         5.123534        -0.851478        -0.496618
 H         2.494481         2.279106        -0.679131
 H         2.120994         1.093844        -1.988174
 H         0.362974         0.477119         0.465540
 H         2.334559        -1.330813        -1.255463
 H         1.528459        -0.842981         2.500269
 H         3.370486        -0.868686         2.595000
 H         2.875535         2.386087         1.161374
