19
Iteration:  1523charge 0 multiplicity 1
 C         4.843157         0.206796        -0.368660
 C         3.308500         0.188507        -0.304403
 C         2.273422         0.755797        -1.242979
 C         1.339217         0.141787        -0.212931
 C         2.334614        -1.028467        -0.139772
 O         2.325558        -1.560362         1.184592
 C         2.610215        -0.431855         2.037153
 C         2.447032         0.734886         0.941363
 O         2.554358         2.021298         1.596120
 H         5.319890        -0.591717         0.185419
 H         5.010228         0.003761        -1.453135
 H         5.243617         1.150156        -0.158735
 H         2.472938         1.810247        -1.408563
 H         2.267620         0.247702        -2.388592
 H         0.239829         0.017757        -0.216683
 H         2.279790        -1.792703        -0.847062
 H         1.873531        -0.590403         2.900399
 H         3.634997        -0.694578         2.440792
 H         2.800210         2.608997         0.922078
