19
Iteration:  1709charge 0 multiplicity 1
 C         4.802739         0.203045        -0.384976
 C         3.314268         0.149040        -0.350959
 C         2.241472         0.800732        -1.277080
 C         1.342032         0.228463        -0.127304
 C         2.290172        -0.968943        -0.124132
 O         2.542504        -1.551252         1.161183
 C         2.411708        -0.457510         2.097824
 C         2.488333         0.619269         0.944695
 O         2.651095         1.934129         1.506499
 H         5.220200        -0.666206         0.198055
 H         5.424892         0.294218        -1.400385
 H         4.938506         1.112600         0.288837
 H         2.143606         1.915455        -1.320722
 H         2.200535         0.408284        -2.248625
 H         0.239788         0.485328        -0.158931
 H         2.056134        -1.905336        -0.753742
 H         1.360839        -0.375201         2.576817
 H         3.126526        -0.535790         2.919262
 H         2.615349         2.595748         0.855695
