19
Iteration:  1712charge 0 multiplicity 1
 C         4.820425         0.203458        -0.397495
 C         3.333514         0.165887        -0.371667
 C         2.254121         0.783764        -1.255845
 C         1.338311         0.245856        -0.123925
 C         2.250512        -0.991251        -0.136833
 O         2.538151        -1.535454         1.172346
 C         2.416374        -0.455952         2.099268
 C         2.513790         0.626275         0.925914
 O         2.640351         1.922324         1.525329
 H         5.184396        -0.609727         0.233039
 H         5.430551         0.292109        -1.309661
 H         4.885639         1.108650         0.293680
 H         2.133471         1.796882        -1.292065
 H         2.187979         0.371188        -2.373348
 H         0.168613         0.438335        -0.199835
 H         2.026981        -1.855572        -0.818021
 H         1.386225        -0.452110         2.612554
 H         3.155375        -0.504126         2.961677
 H         2.573965         2.633109         0.832697
