19
Iteration:  1538charge 0 multiplicity 1
 C         4.805224         0.197901        -0.417749
 C         3.302738         0.226765        -0.172350
 C         2.308273         0.804896        -1.231793
 C         1.408178         0.206323        -0.132828
 C         2.318771        -1.001639        -0.118794
 O         2.352383        -1.654104         1.143309
 C         2.546335        -0.399755         2.002200
 C         2.472123         0.663737         0.990201
 O         2.549066         1.941669         1.479806
 H         5.229419        -0.418268         0.357240
 H         5.118438        -0.147671        -1.369323
 H         5.205555         1.258482        -0.333426
 H         2.090319         1.880058        -1.360294
 H         2.281618         0.191825        -2.168631
 H         0.192780         0.235645        -0.125746
 H         2.369863        -1.798262        -0.963996
 H         1.791149        -0.165211         2.751991
 H         3.599760        -0.226312         2.432147
 H         2.856599         2.552586         0.765699
