19
Iteration:  3660
 C         4.815201         0.210655        -0.400801
 C         3.377361         0.350122        -0.178634
 C         2.258425         1.188462        -1.033258
 C         1.432112         0.364085        -0.005896
 C         2.342057        -0.829093        -0.314455
 O         2.272348        -1.793666         0.738296
 C         2.506831        -0.811353         1.902392
 C         2.480905         0.579612         1.116141
 O         2.615626         1.843523         1.747496
 H         5.184443        -0.118272        -1.465258
 H         5.314490         1.180501        -0.145887
 H         5.200576        -0.626955         0.272530
 H         2.365493         2.333481        -0.735252
 H         2.085895         0.967779        -2.108366
 H         0.340805         0.312915        -0.130550
 H         2.257350        -1.492328        -1.265690
 H         1.646934        -0.932991         2.562993
 H         3.482184        -1.115324         2.308326
 H         2.460522         2.405851         0.887336
