19
Iteration:  4470charge 0 multiplicity 1
 C         4.777365         0.355185        -0.271821
 C         3.258660         0.267211        -0.180387
 C         2.352062         1.141880        -1.120592
 C         1.407319         0.382391        -0.013844
 C         2.225493        -0.909693        -0.395999
 O         2.332664        -1.732737         0.715073
 C         2.532681        -0.797224         1.904415
 C         2.497282         0.541308         1.082118
 O         2.714142         1.811704         1.762959
 H         5.042509         0.804924        -1.202891
 H         5.175827         0.794982         0.602805
 H         5.213251        -0.640382        -0.275501
 H         2.435499         2.250347        -1.134749
 H         2.417961         0.642561        -2.130448
 H         0.345316         0.371356         0.153473
 H         2.022948        -1.447998        -1.307035
 H         1.738584        -0.722248         2.671560
 H         3.493726        -1.105321         2.382778
 H         1.862659         2.355574         1.515723
