19
Iteration:  3415
 C         4.834371         0.314947        -0.396428
 C         3.268427         0.279966        -0.268140
 C         2.251633         1.132643        -1.125230
 C         1.449819         0.446764         0.024993
 C         2.309611        -0.840285        -0.346490
 O         2.354743        -1.757477         0.749737
 C         2.543959        -0.807588         1.858576
 C         2.456036         0.569238         1.089453
 O         2.568503         1.730402         1.896145
 H         5.123971        -0.565068        -0.973335
 H         5.282352         1.228659        -0.892970
 H         5.419627         0.243816         0.566895
 H         2.383796         2.166639        -1.376628
 H         2.130414         0.719590        -2.214711
 H         0.383398         0.698164        -0.006666
 H         1.925723        -1.476993        -1.209113
 H         1.665073        -0.799728         2.580041
 H         3.366806        -0.813528         2.563891
 H         3.277778         2.219580         1.565835
