19
Iteration:  2900charge 0 multiplicity 1
 C         4.777077         0.227444        -0.458612
 C         3.326452         0.269911        -0.209561
 C         2.317079         1.091703        -1.051885
 C         1.421619         0.332917        -0.045715
 C         2.320243        -0.889685        -0.292401
 O         2.332061        -1.682613         0.981725
 C         2.592497        -0.731369         2.012737
 C         2.481982         0.556933         1.080321
 O         2.476932         1.879960         1.488173
 H         5.197446         1.145061        -0.940691
 H         5.495821         0.103051         0.386312
 H         4.960998        -0.635387        -1.087727
 H         2.347263         2.170695        -0.864246
 H         2.144401         0.753835        -2.082524
 H         0.353100         0.407975         0.110539
 H         2.103369        -1.685453        -1.140197
 H         1.741057        -0.621811         2.732733
 H         3.612709        -0.948237         2.508415
 H         3.349573         2.203075         1.412900
