19
Iteration:   715charge 0 multiplicity 1
 C         4.762493         0.062385        -0.318062
 C         3.283512         0.265701        -0.252286
 C         2.256303         0.825673        -1.232956
 C         1.325982         0.222862        -0.096557
 C         2.310977        -1.074464        -0.134182
 O         2.568828        -1.587261         1.133909
 C         2.513523        -0.466285         1.924908
 C         2.481253         0.708306         0.921892
 O         2.588642         2.007190         1.520805
 H         5.239324        -0.436691         0.549605
 H         5.048703        -0.394746        -1.341026
 H         5.235815         1.024174        -0.275389
 H         2.215168         1.999700        -1.232574
 H         2.219692         0.549387        -2.323846
 H         0.253901         0.229337         0.171220
 H         2.169675        -1.914473        -0.865948
 H         1.508234        -0.482773         2.386739
 H         3.243425        -0.225822         2.667534
 H         2.249738         2.749385         1.012412
