19
Iteration:   657charge 0 multiplicity 1
 C         4.815681         0.200589        -0.471534
 C         3.362531         0.242543        -0.225493
 C         2.307369         0.809940        -1.208349
 C         1.410446         0.179213        -0.194615
 C         2.225492        -1.047473        -0.175513
 O         2.325612        -1.640641         1.199352
 C         2.576068        -0.414013         2.040952
 C         2.561830         0.624232         0.986709
 O         2.499748         2.007078         1.525073
 H         5.344355        -0.019953         0.520503
 H         5.247340        -0.476951        -1.222695
 H         4.950135         1.306049        -0.752700
 H         2.141412         2.044129        -1.093982
 H         2.283951         0.359468        -2.155915
 H         0.374246         0.071141        -0.343437
 H         2.163269        -1.916604        -0.945142
 H         1.902875        -0.431342         2.904952
 H         3.597521        -0.400441         2.500523
 H         2.773088         2.805088         0.952197
