19
Iteration:  4885
 C         4.828631         0.174069        -0.354549
 C         3.300140         0.220737        -0.355669
 C         2.192492         1.249005        -0.971636
 C         1.521196         0.407593         0.080935
 C         2.299019        -0.851314        -0.377899
 O         2.409601        -1.710890         0.764665
 C         2.602708        -0.720736         1.878236
 C         2.596609         0.537754         1.083235
 O         2.436515         1.769969         1.691861
 H         5.158141         0.255434        -1.373005
 H         5.244805         0.973005         0.268509
 H         5.082466        -0.866995         0.007572
 H         2.303707         2.291998        -0.600449
 H         1.950447         1.031475        -2.019747
 H         0.494030         0.294796         0.518324
 H         2.014036        -1.410013        -1.307905
 H         1.793194        -0.882048         2.672102
 H         3.597487        -0.892282         2.321303
 H         1.840720         2.394522         1.383453
