19
Iteration:  3287
 C         4.727851         0.264674        -0.432069
 C         3.231204         0.358025        -0.238611
 C         2.239073         1.084872        -1.131532
 C         1.318397         0.258184        -0.248246
 C         2.305426        -0.865288        -0.322716
 O         2.347536        -1.680908         0.826383
 C         2.641746        -0.656158         1.873952
 C         2.418036         0.651906         1.069364
 O         2.730953         1.693574         2.005900
 H         5.087420         0.956287        -1.286405
 H         5.176630         0.640476         0.546350
 H         5.034756        -0.876549        -0.625027
 H         2.075612         2.179564        -0.984084
 H         2.305070         0.764659        -2.206830
 H         0.216800        -0.002473         0.061082
 H         2.416987        -1.596579        -1.115167
 H         1.833714        -0.760466         2.639888
 H         3.748962        -0.643355         2.261723
 H         3.364750         2.322402         1.529599
