19
Iteration:  3449
 C         4.777217         0.248389        -0.366033
 C         3.315299         0.288450        -0.268898
 C         2.227880         1.323291        -0.890256
 C         1.352740         0.286425        -0.126032
 C         2.359952        -0.941530        -0.414496
 O         2.366079        -1.727283         0.819071
 C         2.495839        -0.710363         1.884417
 C         2.446617         0.541829         1.082235
 O         2.745048         1.731561         1.734691
 H         5.133631        -0.494239        -1.117946
 H         5.144925         1.201926        -0.711475
 H         5.284566        -0.054699         0.622346
 H         2.332659         2.226983        -0.322096
 H         2.225230         1.313352        -2.033936
 H         0.227974         0.282023        -0.214795
 H         2.179378        -1.578509        -1.261237
 H         1.539405        -0.680742         2.443110
 H         3.449185        -0.819284         2.412577
 H         2.107805         2.431985         1.483865
