19
Iteration:  1368
 C         4.844722         0.210717        -0.445976
 C         3.327541         0.169341        -0.269680
 C         2.291009         0.865816        -1.225385
 C         1.358767         0.147936        -0.106225
 C         2.360411        -1.016111        -0.097845
 O         2.336459        -1.571042         1.163053
 C         2.514401        -0.446891         2.034714
 C         2.502616         0.640840         0.935638
 O         2.554703         1.966820         1.511284
 H         5.285109         0.133428         0.542113
 H         5.233257        -0.530479        -1.131538
 H         5.107923         1.179550        -0.647121
 H         2.237202         1.895519        -1.354691
 H         2.272674         0.481961        -2.341180
 H         0.229313         0.157511        -0.113958
 H         2.273266        -1.895574        -0.835681
 H         1.798120        -0.434458         2.911576
 H         3.517368        -0.455529         2.536331
 H         2.493857         2.621549         0.722638
