19
Iteration:  4217
 C         4.861645         0.188706        -0.454286
 C         3.380101         0.266944        -0.302274
 C         2.312953         1.237052        -0.961111
 C         1.457208         0.388706         0.027698
 C         2.251034        -0.860315        -0.347810
 O         2.351464        -1.773919         0.802698
 C         2.453233        -0.717190         1.950520
 C         2.582990         0.523986         0.989612
 O         2.426249         1.768925         1.745631
 H         5.373310         0.789697        -1.276754
 H         5.201873         0.612892         0.517194
 H         5.320420        -0.791539        -0.447226
 H         2.346033         2.279611        -0.665381
 H         2.246275         1.199700        -2.099678
 H         0.470186         0.532129         0.439469
 H         2.336233        -1.356851        -1.421078
 H         1.536193        -0.814416         2.515092
 H         3.317305        -0.785644         2.600317
 H         2.913053         2.412908         1.207882
