19
Iteration:  3763
 C         4.824297         0.235921        -0.308109
 C         3.319680         0.217572        -0.313602
 C         2.305842         1.300316        -0.986838
 C         1.444773         0.408326        -0.157138
 C         2.233426        -0.882966        -0.316454
 O         2.321878        -1.723728         0.827148
 C         2.537539        -0.731062         1.825007
 C         2.473506         0.555660         1.087214
 O         2.621229         1.664387         1.775931
 H         5.349733        -0.522444        -0.825750
 H         5.239889         1.138819        -0.879451
 H         5.328628         0.451605         0.650026
 H         2.513523         2.319684        -0.527688
 H         2.028155         1.345214        -2.097583
 H         0.340264         0.534115        -0.084561
 H         2.046216        -1.597551        -1.100847
 H         1.869726        -0.877881         2.681024
 H         3.516005        -1.039656         2.219434
 H         2.111169         2.285061         1.327326
