19
Iteration:   962charge 0 multiplicity 1
 C         4.769748         0.132262        -0.441478
 C         3.335528         0.169871        -0.259303
 C         2.231918         0.841422        -1.282451
 C         1.356567         0.238320        -0.061353
 C         2.353848        -0.971223        -0.154229
 O         2.552444        -1.619287         1.202819
 C         2.425347        -0.368472         1.975415
 C         2.429425         0.691948         0.934874
 O         2.609778         1.898330         1.561875
 H         5.053060        -0.662968         0.324592
 H         5.224369        -0.241890        -1.308811
 H         5.245154         1.092394        -0.301428
 H         2.258873         1.876511        -1.548557
 H         2.109019         0.248702        -2.282810
 H         0.202158         0.322903        -0.030317
 H         2.452656        -1.787424        -0.926774
 H         1.475567        -0.158208         2.481117
 H         3.202562        -0.271609         2.730744
 H         2.462097         2.651921         1.072111
