19
Iteration:  3747
 C         4.842700         0.226919        -0.351262
 C         3.368406         0.338071        -0.282630
 C         2.287859         1.191587        -1.069441
 C         1.394198         0.362089        -0.033608
 C         2.287295        -0.890923        -0.412150
 O         2.252785        -1.713980         0.774518
 C         2.552279        -0.764320         1.854828
 C         2.533111         0.557903         1.016775
 O         2.602703         1.735192         1.921315
 H         5.025486        -0.801914        -0.799470
 H         5.314734         1.088068        -0.815101
 H         5.238903         0.350713         0.683271
 H         2.311826         2.286931        -0.928921
 H         2.263783         0.874044        -2.097389
 H         0.321815         0.325578         0.136089
 H         2.244572        -1.408889        -1.408340
 H         1.699410        -0.726120         2.542723
 H         3.509170        -0.798220         2.405836
 H         2.293623         2.550522         1.452708
