19
Iteration:  2486
 C         4.828559         0.139065        -0.442874
 C         3.307701         0.177111        -0.326914
 C         2.287371         0.954277        -1.207931
 C         1.431020         0.277749        -0.116593
 C         2.367525        -1.018918        -0.210211
 O         2.408063        -1.562933         1.136057
 C         2.537552        -0.451406         2.003536
 C         2.440115         0.658027         0.927076
 O         2.486556         1.831615         1.678468
 H         5.284274         0.752360        -1.280079
 H         5.404294         0.463516         0.476462
 H         4.947043        -0.904913        -0.811628
 H         2.292277         2.062408        -1.190953
 H         2.244645         0.396178        -2.103074
 H         0.286662         0.309619         0.037558
 H         2.077660        -1.739349        -0.978508
 H         1.665055        -0.352287         2.665044
 H         3.551296        -0.440932         2.523745
 H         2.635496         2.667035         1.097772
