19
Iteration:  1200charge 0 multiplicity 1
 C         4.833436         0.168415        -0.368864
 C         3.269483         0.180553        -0.295791
 C         2.147145         0.873763        -1.265364
 C         1.406587         0.192631        -0.123532
 C         2.347274        -1.068510        -0.102363
 O         2.495701        -1.598001         1.194585
 C         2.434189        -0.431113         2.007178
 C         2.456561         0.699857         0.909562
 O         2.679666         1.948812         1.509265
 H         5.252974        -0.379483         0.429898
 H         5.163274        -0.251443        -1.277014
 H         5.126687         1.232994        -0.262568
 H         2.165732         1.956999        -1.266484
 H         2.231822         0.376824        -2.237400
 H         0.302913         0.158403        -0.034185
 H         2.209910        -1.791561        -0.870202
 H         1.419617        -0.545860         2.514517
 H         3.255625        -0.126375         2.716802
 H         2.440137         2.713098         0.874225
