19
Iteration:  2915charge 0 multiplicity 1
 C         4.838328         0.259759        -0.475604
 C         3.316375         0.198736        -0.315329
 C         2.281950         1.068819        -1.088393
 C         1.429321         0.308821        -0.018075
 C         2.252244        -0.986770        -0.183068
 O         2.357181        -1.768479         0.963987
 C         2.481882        -0.585900         1.901524
 C         2.547146         0.615182         0.996732
 O         2.518951         1.904911         1.662372
 H         5.047568         1.133309        -1.056240
 H         5.311004         0.507738         0.481814
 H         5.303702        -0.652437        -0.871837
 H         2.404966         2.093479        -0.856877
 H         2.189745         0.801984        -2.201494
 H         0.349656         0.426097         0.116696
 H         2.237977        -1.549042        -1.086163
 H         1.623415        -0.757717         2.589547
 H         3.449790        -0.706477         2.347393
 H         3.391076         2.315031         1.676035
