19
Iteration:  1000charge 0 multiplicity 1
 C         4.902386         0.188048        -0.317924
 C         3.269423         0.140331        -0.281562
 C         2.269310         0.879806        -1.175277
 C         1.300189         0.207057        -0.095390
 C         2.287851        -1.042888        -0.142880
 O         2.349787        -1.675418         1.195649
 C         2.661505        -0.442152         1.958606
 C         2.474281         0.700714         0.981097
 O         2.559082         2.018447         1.398761
 H         5.445176        -0.645907         0.078899
 H         5.055735         0.337117        -1.425007
 H         5.221278         1.106018         0.244299
 H         2.219611         2.020736        -1.194332
 H         2.294653         0.398623        -2.114079
 H         0.230943         0.212080        -0.154338
 H         2.153795        -1.721943        -0.993609
 H         1.873873        -0.557853         2.766602
 H         3.624967        -0.383218         2.553423
 H         2.458354         2.518901         0.586707
