19
Iteration:  3550
 C         4.821733         0.208135        -0.435186
 C         3.326452         0.203079        -0.284061
 C         2.362438         1.218480        -0.915898
 C         1.434958         0.386063        -0.048784
 C         2.277433        -0.888274        -0.341705
 O         2.386390        -1.753370         0.822391
 C         2.473620        -0.742912         1.881522
 C         2.508675         0.569254         1.065118
 O         2.497685         1.814290         1.715259
 H         5.106154         0.970163        -1.174495
 H         5.233983         0.661828         0.431357
 H         5.148790        -0.858490        -0.569674
 H         2.409606         2.348925        -0.684787
 H         2.191771         1.215697        -2.001553
 H         0.320960         0.405840         0.010829
 H         2.039200        -1.540140        -1.158968
 H         1.574774        -0.666888         2.504134
 H         3.278048        -0.984459         2.566812
 H         3.187650         2.362268         1.393392
