19
Iteration:  2706charge 0 multiplicity 1
 C         4.738121         0.100990        -0.346042
 C         3.275970         0.266545        -0.362887
 C         2.195345         0.996017        -1.208491
 C         1.374237         0.251383        -0.091656
 C         2.245282        -1.014701        -0.291471
 O         2.568537        -1.597109         1.041952
 C         2.541640        -0.505130         1.987121
 C         2.506006         0.661305         0.971013
 O         2.579233         1.904280         1.632696
 H         4.992290        -1.004515        -0.318283
 H         5.206327         0.510594        -1.254047
 H         5.214571         0.718108         0.455829
 H         2.051733         2.081909        -1.170583
 H         2.183561         0.765419        -2.280893
 H         0.304683         0.456596         0.164680
 H         2.121573        -1.761418        -1.064895
 H         1.580065        -0.632657         2.533890
 H         3.329958        -0.640829         2.833934
 H         3.237381         1.865170         2.381711
