19
Iteration:  4186charge 0 multiplicity 1
 C         4.820795         0.132916        -0.501732
 C         3.301777         0.345481        -0.212736
 C         2.337434         1.135467        -1.054586
 C         1.347717         0.336926        -0.172922
 C         2.362768        -0.804898        -0.339359
 O         2.415704        -1.654309         0.789404
 C         2.440665        -0.676979         1.924400
 C         2.376404         0.568528         1.060981
 O         2.556693         1.710197         1.954214
 H         5.101685         0.344378        -1.593518
 H         5.498707         0.607173         0.352951
 H         5.225104        -0.885876        -0.292932
 H         2.389586         2.211208        -0.815915
 H         2.456629         1.025182        -2.172342
 H         0.276894         0.308312        -0.100077
 H         2.601933        -1.384454        -1.270882
 H         1.631750        -0.955701         2.593136
 H         3.417068        -0.703921         2.443176
 H         3.084336         2.431962         1.489339
