19
Iteration:  4801
 C         4.923945         0.415557        -0.396795
 C         3.332756         0.249842        -0.293123
 C         2.163822         1.085526        -1.042229
 C         1.405198         0.343794         0.046365
 C         2.203024        -0.960837        -0.360745
 O         2.433860        -1.667792         0.799486
 C         2.388069        -0.776619         1.866212
 C         2.503013         0.562600         1.105228
 O         2.654219         1.754622         1.775653
 H         5.267303         1.155493        -1.160375
 H         5.515519         0.698495         0.562291
 H         5.605157        -0.424447        -0.687950
 H         2.085547         2.200487        -1.074648
 H         1.969142         0.828984        -2.063868
 H         0.282713         0.503987         0.233213
 H         2.105514        -1.595286        -1.268474
 H         1.424979        -0.756339         2.346657
 H         3.144799        -1.009665         2.625708
 H         3.253869         2.306460         1.162850
