19
Iteration:  1319charge 0 multiplicity 1
 C         4.786995         0.111532        -0.306747
 C         3.281547         0.140841        -0.318810
 C         2.234572         0.793408        -1.224027
 C         1.429957         0.221670        -0.095609
 C         2.261018        -1.010146        -0.208010
 O         2.557021        -1.554012         1.110130
 C         2.494781        -0.429495         2.060013
 C         2.429681         0.675234         1.046634
 O         2.604626         2.008234         1.429617
 H         5.305817        -0.520327         0.437364
 H         5.061629        -0.194120        -1.335789
 H         5.141177         1.203512        -0.090913
 H         2.386103         1.966067        -1.399648
 H         2.150631         0.393908        -2.182638
 H         0.408831         0.305244        -0.094054
 H         2.177147        -1.848713        -0.839209
 H         1.546687        -0.458556         2.601084
 H         3.259418        -0.392886         2.853493
 H         2.064553         2.589157         0.947521
