19
Iteration:  3799charge 0 multiplicity 1
 C         4.777397         0.247659        -0.292480
 C         3.333116         0.279508        -0.202535
 C         2.303184         1.208806        -1.016123
 C         1.428907         0.378443        -0.064599
 C         2.260058        -0.853975        -0.306799
 O         2.353614        -1.736627         0.725377
 C         2.464477        -0.816438         1.834763
 C         2.505636         0.556635         1.070679
 O         2.686236         1.782005         1.762132
 H         5.066960        -0.660215        -0.849578
 H         4.965566         1.137438        -0.890374
 H         5.301613         0.153676         0.705990
 H         2.440688         2.274309        -0.905860
 H         2.182122         1.096489        -2.153214
 H         0.298638         0.325684        -0.044464
 H         2.233787        -1.334725        -1.265774
 H         1.587505        -0.926450         2.532148
 H         3.452208        -0.883755         2.346872
 H         2.068475         2.421184         1.422939
