19
Iteration:  4442charge 0 multiplicity 1
 C         4.887411         0.293676        -0.264989
 C         3.264468         0.226039        -0.262841
 C         2.228487         1.316506        -0.936680
 C         1.350017         0.350524        -0.026955
 C         2.306490        -0.921229        -0.411421
 O         2.372835        -1.742988         0.811955
 C         2.469898        -0.774742         1.875328
 C         2.435019         0.512462         1.006821
 O         2.738665         1.744837         1.644394
 H         5.405557         0.503451        -1.264699
 H         5.254209         1.099307         0.538698
 H         5.421850        -0.611143         0.171730
 H         2.432707         2.390999        -0.696298
 H         2.122727         1.426032        -2.009099
 H         0.223549         0.190783         0.121935
 H         2.144709        -1.576299        -1.281518
 H         1.579045        -0.624236         2.520198
 H         3.383930        -1.038277         2.408664
 H         2.052783         2.502999         1.403772
