19
Iteration:  2917
 C         4.844200         0.265855        -0.462836
 C         3.313614         0.186338        -0.345284
 C         2.278046         1.065522        -1.098984
 C         1.417956         0.297202        -0.013082
 C         2.253155        -0.992718        -0.194176
 O         2.359939        -1.767588         0.969023
 C         2.478735        -0.571470         1.896177
 C         2.545417         0.615567         0.990278
 O         2.528887         1.913442         1.690519
 H         5.058082         1.142590        -1.076267
 H         5.407584         0.568609         0.468713
 H         5.318208        -0.685836        -0.860444
 H         2.418308         2.167756        -0.840534
 H         2.205588         0.739814        -2.167175
 H         0.294937         0.450926         0.103819
 H         2.198836        -1.600513        -1.036099
 H         1.595608        -0.751970         2.507769
 H         3.429971        -0.702795         2.339654
 H         3.372422         2.280983         1.717207
