19
Iteration:   456
 C         4.816156         0.213457        -0.374238
 C         3.258009         0.205943        -0.273891
 C         2.334992         0.853632        -1.190970
 C         1.401222         0.230819        -0.109843
 C         2.286425        -1.049065        -0.171546
 O         2.473512        -1.546482         1.168145
 C         2.385630        -0.503936         2.142967
 C         2.533273         0.594111         0.940655
 O         2.631457         1.958965         1.352879
 H         5.158644        -0.164647         0.573285
 H         4.997250        -0.577459        -1.153141
 H         5.306011         1.197342        -0.628863
 H         2.113542         1.983039        -1.194962
 H         2.267556         0.679588        -2.241626
 H         0.336822         0.228819         0.172116
 H         2.260317        -1.855308        -0.814966
 H         1.377867        -0.394146         2.577333
 H         3.130174        -0.568389         2.936363
 H         2.295748         2.677500         0.853399
