19
Iteration:   688
 C         4.806311         0.103351        -0.411977
 C         3.312113         0.229436        -0.335334
 C         2.255205         0.877086        -1.157611
 C         1.384053         0.298948        -0.076502
 C         2.390607        -1.066785        -0.194416
 O         2.505180        -1.584317         1.150944
 C         2.437457        -0.472839         2.069603
 C         2.410435         0.620719         1.017524
 O         2.558175         1.965950         1.427539
 H         5.097590        -0.100192         0.631326
 H         5.268765        -0.578751        -1.068303
 H         5.268507         1.145551        -0.593476
 H         2.180549         1.972451        -1.284481
 H         2.072925         0.575639        -2.173210
 H         0.291075         0.245449         0.054420
 H         2.238680        -1.896780        -0.884026
 H         1.600637        -0.579836         2.798284
 H         3.414815        -0.212222         2.577539
 H         2.703614         2.589042         0.726601
