19
Iteration:  4836charge 0 multiplicity 1
 C         4.770472         0.320063        -0.450338
 C         3.236194         0.340319        -0.305175
 C         2.286037         1.096702        -1.116908
 C         1.384108         0.324106        -0.071303
 C         2.380255        -0.946384        -0.350544
 O         2.372758        -1.635697         0.868850
 C         2.529119        -0.662704         1.830870
 C         2.364770         0.565544         1.088289
 O         2.697371         1.641234         1.935587
 H         5.081184         1.039573        -1.277583
 H         5.095924         0.693416         0.514518
 H         5.049769        -0.685378        -0.628564
 H         2.387211         2.159763        -0.996301
 H         2.218032         0.676505        -2.133907
 H         0.329910         0.501069        -0.120035
 H         2.505420        -1.635340        -1.169444
 H         1.748195        -0.794575         2.569346
 H         3.500804        -0.754399         2.336167
 H         2.652089         2.594411         1.516561
