19
Iteration:  4235charge 0 multiplicity 1
 C         4.885001         0.274682        -0.359592
 C         3.317715         0.252818        -0.260176
 C         2.351280         1.157093        -0.960891
 C         1.419104         0.389720        -0.006038
 C         2.253806        -0.894092        -0.361772
 O         2.340449        -1.679280         0.791248
 C         2.524633        -0.795096         1.834902
 C         2.448821         0.547520         1.138508
 O         2.535800         1.794160         1.712581
 H         5.086346         0.805367        -1.266680
 H         5.383682         0.629862         0.492618
 H         5.374051        -0.706048        -0.526424
 H         2.599808         2.226714        -0.866743
 H         2.136534         0.982893        -2.007709
 H         0.294995         0.429448        -0.047267
 H         1.834442        -1.521615        -1.110294
 H         1.690563        -0.850352         2.594157
 H         3.461369        -1.144958         2.314285
 H         2.812337         2.459318         1.039423
