19
Iteration:  1828charge 0 multiplicity 1
 C         4.807494         0.076200        -0.433556
 C         3.279243         0.296792        -0.197959
 C         2.237677         0.769503        -1.238794
 C         1.310447         0.268512        -0.184937
 C         2.443842        -1.009873        -0.113813
 O         2.520789        -1.595406         1.143602
 C         2.425466        -0.426895         1.952588
 C         2.438931         0.694808         0.951856
 O         2.628444         1.959128         1.620976
 H         5.311999        -0.248775         0.437881
 H         5.009479        -0.746975        -1.170752
 H         5.275753         0.972092        -0.694703
 H         2.253602         1.961333        -1.509102
 H         1.969683         0.274054        -2.108302
 H         0.230358         0.219341        -0.125646
 H         2.285835        -1.717590        -1.036287
 H         1.525961        -0.480489         2.557797
 H         3.248554        -0.366055         2.640799
 H         2.295293         2.634784         0.935134
