19
Iteration:  2819charge 0 multiplicity 1
 C         4.775959         0.106979        -0.447623
 C         3.248938         0.235288        -0.246698
 C         2.219488         0.987891        -1.183250
 C         1.363942         0.380435        -0.063867
 C         2.346301        -0.970489        -0.233625
 O         2.530955        -1.722681         0.960390
 C         2.460892        -0.557369         1.881909
 C         2.438310         0.710959         1.019182
 O         2.584813         1.948136         1.716473
 H         5.361226         0.490849         0.414455
 H         5.106785        -0.958984        -0.625983
 H         5.224593         0.742465        -1.299241
 H         2.293481         2.058491        -1.466697
 H         2.036418         0.500926        -2.161220
 H         0.260350         0.308997         0.063016
 H         2.442788        -1.629700        -0.994626
 H         1.665094        -0.782675         2.604897
 H         3.422619        -0.579400         2.490887
 H         3.188111         1.868563         2.405138
