19
Iteration:  3189charge 0 multiplicity 1
 C         4.766973         0.115412        -0.503158
 C         3.244337         0.311912        -0.152639
 C         2.209604         1.100520        -1.053572
 C         1.386917         0.299868        -0.137184
 C         2.363023        -0.855297        -0.317108
 O         2.478452        -1.692619         0.829972
 C         2.557737        -0.710881         1.935876
 C         2.397171         0.660562         1.075687
 O         2.689995         1.841066         1.776566
 H         5.341577         0.657518         0.248298
 H         4.874178        -0.965970        -0.367923
 H         5.083593         0.602428        -1.475973
 H         2.082959         2.176232        -1.194496
 H         2.168629         0.714613        -2.077486
 H         0.175946         0.230081        -0.192490
 H         2.249778        -1.274049        -1.298653
 H         1.703333        -0.712561         2.627828
 H         3.603020        -0.637155         2.326017
 H         2.025126         2.112350         2.499512
