19
Iteration:  1641charge 0 multiplicity 1
 C         4.857729         0.136542        -0.398220
 C         3.336106         0.147767        -0.384287
 C         2.333382         0.831639        -1.196115
 C         1.413548         0.286924        -0.122676
 C         2.294551        -1.017030        -0.100855
 O         2.366349        -1.630039         1.223535
 C         2.633594        -0.375178         1.953659
 C         2.461812         0.705653         0.918869
 O         2.397261         1.898754         1.552833
 H         5.192793        -0.613566         0.399200
 H         5.286257        -0.263730        -1.387200
 H         5.245634         1.146522        -0.203034
 H         2.428160         1.939860        -1.327330
 H         2.251471         0.438125        -2.092125
 H         0.459143         0.549996         0.114989
 H         2.150314        -1.599894        -0.976562
 H         1.897544        -0.245365         2.780220
 H         3.610427        -0.488844         2.391218
 H         2.386972         2.583413         0.814949
