19
Iteration:  4467charge 0 multiplicity 1
 C         4.757778         0.361895        -0.248284
 C         3.266702         0.269206        -0.220706
 C         2.350946         1.143850        -1.078356
 C         1.418978         0.385710        -0.030178
 C         2.234435        -0.897360        -0.358184
 O         2.333824        -1.752681         0.715814
 C         2.517874        -0.799268         1.911168
 C         2.492163         0.507978         1.076801
 O         2.721791         1.831731         1.739207
 H         5.110180         0.802568        -1.301158
 H         5.271470         0.815964         0.613983
 H         5.220408        -0.646075        -0.266514
 H         2.322113         2.232168        -1.127522
 H         2.381493         0.748408        -2.144347
 H         0.354040         0.479185         0.176503
 H         1.999439        -1.424810        -1.370988
 H         1.692060        -0.884709         2.673110
 H         3.491562        -1.053322         2.346689
 H         1.908502         2.340894         1.464817
