19
Iteration:   768charge 0 multiplicity 1
 C         4.799799         0.191714        -0.443052
 C         3.370289         0.196938        -0.279741
 C         2.331643         0.817435        -1.179078
 C         1.454005         0.211754        -0.089436
 C         2.274355        -1.064233        -0.094733
 O         2.289844        -1.702264         1.158899
 C         2.671828        -0.370129         1.981258
 C         2.474752         0.705909         0.957897
 O         2.448515         1.981381         1.494929
 H         5.235144        -0.764782        -0.000204
 H         5.164159         0.306372        -1.529824
 H         5.328098         0.930466         0.143638
 H         2.572624         1.967826        -1.177441
 H         2.146519         0.362536        -2.061251
 H         0.411933         0.296825        -0.071923
 H         2.078663        -1.763289        -1.001131
 H         1.887471        -0.287525         2.738624
 H         3.648222        -0.080386         2.430919
 H         2.289146         2.634246         0.810481
