19
Iteration:  4850
 C         4.770367         0.250149        -0.414183
 C         3.311945         0.230435        -0.187401
 C         2.276067         1.128432        -1.056883
 C         1.333653         0.347005        -0.186626
 C         2.311356        -0.852103        -0.349675
 O         2.383600        -1.663913         0.817659
 C         2.610590        -0.685409         1.912685
 C         2.408211         0.585333         1.057983
 O         2.639400         1.700467         1.895518
 H         4.980347         0.868079        -1.290652
 H         5.414613         0.735005         0.261967
 H         5.257120        -0.702562        -0.650474
 H         2.277912         2.221497        -1.016516
 H         2.222663         0.956671        -2.179342
 H         0.292955         0.170983        -0.061476
 H         2.133585        -1.433090        -1.262778
 H         2.029695        -0.968354         2.840440
 H         3.683466        -0.600879         2.108885
 H         2.175448         2.458187         1.509876
