19
Iteration:  2381charge 0 multiplicity 1
 C         4.838516         0.116485        -0.360582
 C         3.277846         0.225572        -0.285506
 C         2.293015         0.836968        -1.270907
 C         1.399504         0.275832        -0.120733
 C         2.289999        -1.015746        -0.201639
 O         2.339916        -1.556376         1.130414
 C         2.670698        -0.465676         1.962466
 C         2.468266         0.619582         0.992690
 O         2.497806         1.930315         1.636417
 H         5.265107         1.013298         0.132885
 H         5.395460        -0.763671        -0.052181
 H         5.143533         0.348381        -1.429460
 H         2.333513         1.926984        -1.340723
 H         2.197013         0.313659        -2.224225
 H         0.274748         0.342495        -0.097719
 H         2.152479        -1.778826        -0.996971
 H         1.981185        -0.357511         2.829505
 H         3.671795        -0.439821         2.369127
 H         2.424217         2.640531         0.934306
