19
Iteration:  4036charge 0 multiplicity 1
 C         4.837764         0.126288        -0.485031
 C         3.336705         0.368170        -0.266082
 C         2.301134         1.182704        -0.996287
 C         1.397370         0.398322        -0.070107
 C         2.380548        -0.838346        -0.355668
 O         2.407676        -1.728376         0.761588
 C         2.467088        -0.660774         1.867877
 C         2.419578         0.595987         1.085707
 O         2.512983         1.694261         1.929958
 H         5.107994        -0.420488        -1.370281
 H         5.335453         1.144856        -0.561242
 H         5.275171        -0.431737         0.392276
 H         2.375047         2.358171        -0.938730
 H         2.302405         0.801732        -2.017487
 H         0.248287         0.288948        -0.080377
 H         2.419810        -1.443891        -1.234067
 H         1.527456        -0.963532         2.363089
 H         3.276809        -0.960558         2.583887
 H         2.817790         2.445810         1.412465
