19
Iteration:  2241
 C         4.795721         0.244367        -0.363282
 C         3.335575         0.102884        -0.353868
 C         2.328680         0.928409        -1.171115
 C         1.346757         0.161108        -0.062295
 C         2.261571        -1.074260        -0.174798
 O         2.344002        -1.558665         1.191279
 C         2.546800        -0.411538         2.005410
 C         2.513342         0.599303         0.919886
 O         2.584514         1.960313         1.466710
 H         5.168157        -0.559476         0.249928
 H         5.237394         0.214388        -1.343100
 H         5.101870         1.158916         0.143012
 H         2.360142         2.120948        -1.034179
 H         2.186134         0.672326        -2.270071
 H         0.332719        -0.041598         0.072039
 H         2.388478        -1.892402        -0.993885
 H         1.879346        -0.272407         2.844765
 H         3.550517        -0.541696         2.507402
 H         2.496667         2.456005         0.673608
