19
Iteration:  3131
 C         4.811247         0.258143        -0.428230
 C         3.265155         0.236454        -0.251490
 C         2.283811         1.125145        -1.056330
 C         1.407326         0.329804        -0.052680
 C         2.262702        -0.906934        -0.322841
 O         2.340043        -1.704581         0.886521
 C         2.651586        -0.754697         1.896074
 C         2.493721         0.624937         1.087856
 O         2.491870         1.881200         1.671250
 H         5.229687         0.092724         0.592589
 H         5.133944        -0.623604        -0.995386
 H         5.265979         1.116065        -0.961614
 H         2.402684         2.142102        -0.839327
 H         2.074367         0.855360        -2.101411
 H         0.388628         0.329615         0.169309
 H         2.074626        -1.618136        -1.160749
 H         2.004480        -0.856608         2.767124
 H         3.676755        -0.942496         2.334579
 H         3.422439         2.071447         1.772195
