19
Iteration:  2015charge 0 multiplicity 1
 C         4.959477         0.100017        -0.507636
 C         3.383734         0.160150        -0.286857
 C         2.275872         0.945768        -1.142233
 C         1.370420         0.199720        -0.154655
 C         2.243646        -0.998675        -0.117460
 O         2.366299        -1.612343         1.196577
 C         2.571822        -0.461317         2.042039
 C         2.445850         0.649885         0.977525
 O         2.434194         1.977322         1.494136
 H         5.521662        -0.140261         0.390511
 H         5.319378        -0.630971        -1.325466
 H         5.267880         1.095626        -0.756550
 H         2.603147         1.979144        -0.918006
 H         2.111204         0.735170        -2.194899
 H         0.263667         0.346232        -0.047092
 H         2.174355        -1.833573        -0.974252
 H         1.982763        -0.354050         2.975212
 H         3.632716        -0.481555         2.346236
 H         2.398588         2.641813         0.705859
