19
Iteration:  2123
 C         4.877531         0.175474        -0.397399
 C         3.336437         0.144054        -0.246945
 C         2.327504         0.819541        -1.147706
 C         1.385764         0.292428        -0.010547
 C         2.281629        -1.009553        -0.103557
 O         2.331294        -1.675730         1.107166
 C         2.628705        -0.443802         1.978179
 C         2.418068         0.659570         0.986063
 O         2.511430         2.018691         1.410070
 H         5.377294        -0.665092         0.124529
 H         5.012745         0.050809        -1.557134
 H         5.334536         1.146523        -0.127180
 H         2.194659         1.825358        -1.122992
 H         2.341700         0.646392        -2.304261
 H         0.365742         0.122705         0.236588
 H         2.182518        -1.708542        -1.043133
 H         1.821176        -0.305484         2.684154
 H         3.615894        -0.471123         2.526974
 H         2.301346         2.563086         0.590052
