19
Iteration:  3046charge 0 multiplicity 1
 C         4.771335         0.210558        -0.440660
 C         3.329964         0.272046        -0.311218
 C         2.283649         0.977877        -1.172880
 C         1.382387         0.396533        -0.108027
 C         2.302184        -0.882223        -0.265697
 O         2.438951        -1.683415         0.875797
 C         2.545328        -0.629445         1.929832
 C         2.395075         0.608662         1.115942
 O         2.663402         1.834406         1.808790
 H         5.019520        -0.823405        -0.585513
 H         5.155241         0.792362        -1.244684
 H         5.368020         0.473364         0.456230
 H         2.116289         2.037117        -1.357277
 H         2.050643         0.409026        -2.096415
 H         0.237844         0.409391        -0.001538
 H         2.228234        -1.486948        -1.134685
 H         1.877263        -0.864676         2.788538
 H         3.549109        -0.766838         2.318280
 H         1.752229         2.303462         1.911695
