19
Iteration:  3476charge 0 multiplicity 1
 C         4.804343         0.242957        -0.328565
 C         3.333852         0.290791        -0.262954
 C         2.275993         1.199219        -1.037870
 C         1.380429         0.404839        -0.033825
 C         2.226428        -0.823913        -0.331387
 O         2.415245        -1.738764         0.829515
 C         2.515568        -0.759892         1.810133
 C         2.520110         0.540812         1.062800
 O         2.637403         1.756393         1.693053
 H         5.166389        -0.137152        -1.317823
 H         5.252752         1.283261        -0.321818
 H         5.047468        -0.442987         0.444940
 H         2.479321         2.260676        -0.783165
 H         2.213307         0.933486        -2.062360
 H         0.290041         0.432374        -0.055646
 H         1.940262        -1.405938        -1.276596
 H         1.630548        -0.835355         2.479668
 H         3.479815        -0.880529         2.459433
 H         2.085785         1.714057         2.498305
