19
Iteration:  1958
 C         4.878702         0.024781        -0.397154
 C         3.329180         0.175035        -0.433951
 C         2.148840         0.808554        -1.320855
 C         1.404166         0.280275        -0.067034
 C         2.385606        -0.979669        -0.144190
 O         2.551906        -1.560979         1.148623
 C         2.420831        -0.437084         2.045819
 C         2.401309         0.682735         1.028331
 O         2.558771         1.996870         1.606181
 H         5.271152        -0.836637         0.165694
 H         5.345363         0.141871        -1.434756
 H         5.223360         0.975326         0.085338
 H         2.343526         1.819575        -1.507563
 H         1.999762         0.297459        -2.326952
 H         0.370802         0.483124        -0.046101
 H         2.036568        -1.848505        -0.847817
 H         1.537242        -0.425438         2.693692
 H         3.372002        -0.428994         2.656950
 H         2.214469         2.541796         0.934429
