19
Iteration:  4100
 C         4.760838         0.299349        -0.300728
 C         3.256018         0.300867        -0.144074
 C         2.411418         1.242290        -0.998801
 C         1.407241         0.382317        -0.152812
 C         2.235925        -0.872903        -0.404870
 O         2.295502        -1.783543         0.733074
 C         2.563413        -0.815018         1.889720
 C         2.421488         0.521830         1.138446
 O         2.721075         1.765919         1.765059
 H         4.987671        -0.482723        -1.008702
 H         4.986273         1.323769        -0.739707
 H         5.430885         0.274635         0.594728
 H         2.320132         2.380658        -1.016850
 H         2.407864         0.894205        -2.031934
 H         0.343760         0.139114        -0.254815
 H         2.145984        -1.396840        -1.340143
 H         1.774803        -0.888244         2.662131
 H         3.600414        -0.744175         2.370239
 H         2.165014         2.411024         1.447723
