19
Iteration:  1075
 C         4.771178         0.121358        -0.440929
 C         3.299731         0.163887        -0.236258
 C         2.249914         0.825133        -1.310888
 C         1.329470         0.224904        -0.144976
 C         2.376431        -0.953595        -0.137892
 O         2.566754        -1.570410         1.186926
 C         2.409358        -0.425863         2.054135
 C         2.516816         0.736357         0.969689
 O         2.582254         1.918034         1.562982
 H         4.977612        -0.712535         0.257485
 H         5.088488        -0.151378        -1.487038
 H         5.140140         1.081263        -0.172925
 H         2.381114         1.884151        -1.769953
 H         2.051904         0.286754        -2.218024
 H         0.307995         0.259328        -0.024637
 H         2.315061        -1.777501        -0.861798
 H         1.412775        -0.369892         2.618785
 H         3.275599        -0.620806         2.788152
 H         2.342633         2.602170         0.821123
