19
Iteration:  3103
 C         4.822015         0.304993        -0.491179
 C         3.280107         0.270391        -0.197832
 C         2.264094         1.130844        -1.003443
 C         1.372987         0.278701        -0.075520
 C         2.349393        -0.894719        -0.281585
 O         2.364041        -1.738257         0.914839
 C         2.483891        -0.717164         1.938009
 C         2.429923         0.590217         1.052992
 O         2.650330         1.829661         1.663678
 H         5.377536        -0.376089         0.157839
 H         4.979432        -0.169386        -1.477677
 H         5.305819         1.302485        -0.423901
 H         2.245027         2.261831        -0.787722
 H         2.097328         1.010138        -2.089296
 H         0.226397         0.201800         0.164695
 H         2.486706        -1.570438        -1.104071
 H         1.594186        -0.729879         2.628906
 H         3.463748        -0.808241         2.437961
 H         3.064314         2.196182         0.918086
