19
Iteration:  4474charge 0 multiplicity 1
 C         4.792326         0.325510        -0.298747
 C         3.270610         0.274236        -0.153943
 C         2.350015         1.128299        -1.160373
 C         1.391858         0.377670        -0.009012
 C         2.219077        -0.900146        -0.420113
 O         2.327966        -1.714437         0.735225
 C         2.552797        -0.787965         1.877669
 C         2.503442         0.585581         1.093198
 O         2.691364         1.780620         1.788856
 H         5.029024         0.922299        -1.179215
 H         5.106049         0.885668         0.650413
 H         5.224310        -0.690847        -0.300344
 H         2.578026         2.206196        -1.128896
 H         2.385029         0.599010        -2.080133
 H         0.256532         0.264622         0.111134
 H         2.069294        -1.515541        -1.304529
 H         1.769541        -0.618015         2.627924
 H         3.458231        -1.115868         2.393732
 H         1.959649         2.305531         1.650882
