19
Iteration:  1938
 C         4.763230         0.129508        -0.359582
 C         3.260800         0.140074        -0.353007
 C         2.258559         0.835817        -1.269376
 C         1.386494         0.256603        -0.082102
 C         2.324930        -1.016893        -0.111771
 O         2.535975        -1.566182         1.191232
 C         2.510674        -0.375726         1.976191
 C         2.472084         0.686971         0.891183
 O         2.567084         1.914512         1.576162
 H         5.006186        -0.847550        -0.034499
 H         5.270025         0.296780        -1.334048
 H         5.210381         0.789336         0.307761
 H         2.110669         1.917526        -1.468067
 H         2.120175         0.407481        -2.228148
 H         0.277521         0.124540        -0.081512
 H         2.178240        -1.795455        -0.991178
 H         1.537861        -0.391540         2.508154
 H         3.293527        -0.281065         2.723867
 H         2.733624         2.677242         1.002267
