19
Iteration:  2933
 C         4.871145         0.300422        -0.459825
 C         3.329146         0.210684        -0.347267
 C         2.236928         0.968629        -1.185337
 C         1.383670         0.330221        -0.107764
 C         2.262235        -1.007595        -0.312771
 O         2.413813        -1.629321         1.008053
 C         2.485478        -0.599119         1.942135
 C         2.460240         0.624149         1.016368
 O         2.597949         1.846177         1.804056
 H         5.193821         0.898424        -1.349880
 H         5.230307         0.651245         0.510230
 H         5.287168        -0.682704        -0.594066
 H         2.290821         2.043249        -1.186075
 H         1.959442         0.723964        -2.192836
 H         0.350056         0.277104         0.086778
 H         1.873896        -1.757310        -1.138949
 H         1.589597        -0.369937         2.542863
 H         3.260308        -0.721316         2.778849
 H         3.531520         1.883405         1.977618
