19
Iteration:  1045
 C         4.861228         0.171101        -0.365703
 C         3.364439         0.157557        -0.267294
 C         2.212727         0.861142        -1.299070
 C         1.353857         0.165690        -0.134624
 C         2.277128        -1.028111        -0.108380
 O         2.426110        -1.630189         1.177116
 C         2.541837        -0.433335         1.993925
 C         2.440835         0.726558         0.906928
 O         2.565652         1.985592         1.521310
 H         5.321975        -0.666150         0.172400
 H         5.132137         0.271523        -1.435945
 H         5.271442         0.954365         0.370516
 H         2.342651         1.968241        -1.204192
 H         2.056782         0.416210        -2.298958
 H         0.261837         0.063066         0.155543
 H         2.150889        -1.850802        -0.872201
 H         1.896728        -0.122223         2.905579
 H         3.599797        -0.471661         2.491415
 H         2.573585         2.648472         0.807132
