19
Iteration:  2149charge 0 multiplicity 1
 C         4.787879         0.085869        -0.454120
 C         3.320337         0.196263        -0.340575
 C         2.352901         0.869587        -1.277718
 C         1.452804         0.278881        -0.179144
 C         2.313272        -0.996095        -0.125905
 O         2.349769        -1.580478         1.240004
 C         2.628414        -0.468898         2.054594
 C         2.456013         0.657039         1.045238
 O         2.442382         1.954417         1.532825
 H         5.125534        -0.951186        -0.228640
 H         4.987060         0.336566        -1.504285
 H         5.326404         0.837129         0.135004
 H         2.120761         2.008629        -1.196672
 H         2.328604         0.536636        -2.254602
 H         0.316456         0.032688        -0.250615
 H         2.381404        -1.743634        -0.840304
 H         2.045629        -0.334681         3.032312
 H         3.668536        -0.388829         2.350296
 H         2.382899         2.559147         0.708423
