19
Iteration:   531charge 0 multiplicity 1
 C         4.877522         0.113979        -0.355790
 C         3.260995         0.155921        -0.321442
 C         2.256037         0.837561        -1.280510
 C         1.411479         0.242185        -0.176821
 C         2.387555        -1.106321        -0.073170
 O         2.360659        -1.617531         1.175280
 C         2.611567        -0.397627         1.963603
 C         2.469159         0.716614         0.976328
 O         2.428736         2.032398         1.573634
 H         5.202771        -0.773760         0.177356
 H         5.122244        -0.041506        -1.443148
 H         5.442390         0.926191         0.045596
 H         2.482861         1.890364        -1.330500
 H         2.028308         0.279431        -2.331624
 H         0.286870         0.598728        -0.059247
 H         2.298365        -1.804254        -0.903188
 H         1.989435        -0.583877         2.868173
 H         3.689882        -0.358063         2.245331
 H         2.628444         2.828463         0.944651
