19
Iteration:   364charge 0 multiplicity 1
 C         4.860593         0.058169        -0.438229
 C         3.368273         0.084625        -0.252657
 C         2.318193         0.846436        -1.143561
 C         1.399937         0.192761        -0.103142
 C         2.269942        -0.997106        -0.157286
 O         2.474252        -1.590585         1.163696
 C         2.475301        -0.327844         2.034614
 C         2.475454         0.747538         0.939488
 O         2.495932         2.018660         1.472845
 H         5.247155        -0.779273         0.174265
 H         5.045736        -0.023620        -1.479719
 H         5.141851         0.969803        -0.081272
 H         2.316851         1.856748        -1.228523
 H         2.282016         0.377030        -2.146847
 H         0.311436        -0.103350        -0.124238
 H         2.103817        -1.821421        -0.975002
 H         1.542826        -0.404127         2.621505
 H         3.329532        -0.459712         2.706234
 H         2.251116         2.636347         0.778725
