19
Iteration:   740
 C         4.829259         0.061669        -0.370291
 C         3.330261         0.182242        -0.327015
 C         2.205159         0.847990        -1.324566
 C         1.389934         0.263315        -0.150142
 C         2.368515        -0.947605        -0.143501
 O         2.436396        -1.574832         1.161346
 C         2.613281        -0.437915         2.092188
 C         2.422908         0.671436         0.999405
 O         2.533517         1.932891         1.531629
 H         5.299008        -0.635089         0.280144
 H         5.188164        -0.025236        -1.387894
 H         5.207376         1.034317         0.037504
 H         2.357048         1.867062        -1.491766
 H         1.932977         0.291160        -2.351592
 H         0.230287         0.097724        -0.127177
 H         2.195042        -1.665518        -0.867109
 H         1.699801        -0.470285         2.703595
 H         3.489313        -0.161981         2.692281
 H         2.077448         2.592105         1.090493
