19
Iteration:  1613charge 0 multiplicity 1
 C         4.807237         0.077700        -0.379550
 C         3.307507         0.199385        -0.308837
 C         2.282193         0.812297        -1.265146
 C         1.415388         0.228926        -0.219961
 C         2.373252        -0.950610        -0.206443
 O         2.431762        -1.588764         1.202440
 C         2.574722        -0.456800         2.071185
 C         2.405924         0.704091         0.992081
 O         2.527015         1.990724         1.589375
 H         5.223184        -0.326916         0.504689
 H         5.045344        -0.585070        -1.199793
 H         5.224037         1.044053        -0.658826
 H         2.137069         1.856043        -1.513285
 H         2.305864         0.121775        -2.321185
 H         0.273661         0.416178        -0.035419
 H         2.185329        -1.597194        -1.121832
 H         1.770943        -0.424087         2.874553
 H         3.607956        -0.587563         2.484809
 H         1.997533         2.621693         1.101046
