19
Iteration:   214
 C         4.915852         0.070401        -0.489243
 C         3.322035         0.148323        -0.233405
 C         2.255425         0.831779        -1.163326
 C         1.338066         0.200784        -0.115616
 C         2.224388        -0.947782        -0.142042
 O         2.601078        -1.548961         1.198444
 C         2.370221        -0.413910         2.052848
 C         2.433965         0.693414         1.019318
 O         2.531582         1.988059         1.348803
 H         5.225294        -0.609833         0.400655
 H         5.127182        -0.568676        -1.408498
 H         5.320220         1.122534        -0.504237
 H         2.269001         2.015494        -1.230799
 H         2.141060         0.505581        -2.249965
 H         0.235204         0.126510        -0.076650
 H         2.332989        -1.657440        -0.941177
 H         1.404924        -0.421200         2.624626
 H         3.221739        -0.311610         2.775332
 H         3.382764         2.129096         1.685685
