19
Iteration:  4453charge 0 multiplicity 1
 C         4.848453         0.308679        -0.264202
 C         3.344208         0.296476        -0.282143
 C         2.256475         1.200685        -0.959931
 C         1.395018         0.407784        -0.046474
 C         2.267951        -0.874876        -0.329966
 O         2.347998        -1.804047         0.807301
 C         2.470945        -0.850607         1.830178
 C         2.447764         0.572592         1.067715
 O         2.733289         1.778546         1.626183
 H         5.292208         0.792247        -1.202874
 H         5.002089         1.100939         0.587705
 H         5.233335        -0.720619        -0.027030
 H         2.432090         2.211565        -0.537456
 H         1.962996         1.073622        -1.988461
 H         0.257230         0.527225        -0.049047
 H         2.162007        -1.487093        -1.251333
 H         1.650931        -1.067085         2.558756
 H         3.402990        -0.888575         2.404408
 H         2.043961         2.470407         1.353675
