19
Iteration:   646
 C         4.831838         0.274031        -0.475440
 C         3.337320         0.181051        -0.328061
 C         2.343451         0.791920        -1.249599
 C         1.397021         0.145308        -0.201903
 C         2.254975        -1.097702        -0.133561
 O         2.295452        -1.566083         1.225453
 C         2.625798        -0.479440         2.041234
 C         2.471995         0.698339         0.986297
 O         2.504277         2.000704         1.613657
 H         5.325346        -0.044100         0.497842
 H         5.148351        -0.382806        -1.293791
 H         5.278365         1.281362        -0.695728
 H         2.300576         1.985249        -1.464953
 H         2.410995         0.360927        -2.220751
 H         0.399690         0.422350        -0.181233
 H         2.069861        -1.960916        -0.852156
 H         1.821798        -0.454318         2.791195
 H         3.628206        -0.563272         2.510681
 H         2.766341         2.585258         0.801560
