19
Iteration:  3948charge 0 multiplicity 1
 C         4.690436         0.286244        -0.228571
 C         3.256205         0.380714        -0.282315
 C         2.381555         1.106515        -1.237632
 C         1.346622         0.405266        -0.130447
 C         2.231127        -0.877836        -0.350125
 O         2.408241        -1.753373         0.840704
 C         2.529048        -0.764709         1.847152
 C         2.408361         0.610194         1.072813
 O         2.787309         1.685622         1.885934
 H         4.946584         0.907450        -1.058376
 H         5.242828         0.738000         0.642782
 H         5.003881        -0.744939        -0.431699
 H         2.302320         2.223191        -1.131658
 H         2.446318         0.675776        -2.197031
 H         0.204531         0.409935        -0.096778
 H         2.120410        -1.268709        -1.341700
 H         1.817845        -1.004343         2.642977
 H         3.499484        -0.687153         2.368219
 H         2.275670         2.413419         1.662699
