19
Iteration:  3542charge 0 multiplicity 1
 C         4.807888         0.219925        -0.408770
 C         3.307357         0.248476        -0.277360
 C         2.348020         1.201782        -0.969081
 C         1.397241         0.385484        -0.089726
 C         2.253461        -0.942369        -0.374636
 O         2.385353        -1.663156         0.874253
 C         2.453904        -0.742088         1.870380
 C         2.572854         0.569508         1.050594
 O         2.493328         1.743640         1.738364
 H         5.197055         0.767261        -1.308393
 H         5.430307         0.637874         0.455445
 H         5.262661        -0.707679        -0.608349
 H         2.593178         2.127229        -0.440971
 H         2.297040         1.226925        -2.010863
 H         0.347598         0.344768         0.178728
 H         1.996151        -1.604249        -1.321298
 H         1.590325        -0.647761         2.525447
 H         3.436251        -0.775903         2.371659
 H         3.195593         2.391941         1.710849
