19
Iteration:  3540charge 0 multiplicity 1
 C         4.815646         0.233858        -0.400885
 C         3.309530         0.261255        -0.274843
 C         2.340703         1.202946        -0.989017
 C         1.395772         0.371438        -0.095679
 C         2.241760        -0.946622        -0.378787
 O         2.380270        -1.648444         0.882313
 C         2.460653        -0.717874         1.873278
 C         2.574740         0.549252         1.037044
 O         2.494310         1.731935         1.752173
 H         5.172231         0.691035        -1.354700
 H         5.397758         0.572472         0.433971
 H         5.306948        -0.738853        -0.608578
 H         2.616170         2.150815        -0.435829
 H         2.327350         1.224718        -2.051671
 H         0.327971         0.382266         0.205024
 H         2.053693        -1.570326        -1.282595
 H         1.607102        -0.712806         2.539406
 H         3.425360        -0.761985         2.339039
 H         3.199550         2.314028         1.781995
