19
Iteration:   157charge 0 multiplicity 1
 C         4.880099         0.221238        -0.419280
 C         3.351988         0.096659        -0.242822
 C         2.315214         0.765024        -1.241772
 C         1.397671         0.176643        -0.058841
 C         2.273332        -1.034900        -0.139765
 O         2.283431        -1.460140         1.157822
 C         2.698594        -0.390059         2.008307
 C         2.370923         0.677319         0.980058
 O         2.517587         1.989504         1.357113
 H         5.330207        -0.679577         0.265635
 H         5.059736         0.051716        -1.484136
 H         5.446577         1.023978        -0.075568
 H         2.223783         1.803393        -1.204278
 H         2.038013         0.282687        -2.276300
 H         0.292791         0.083178         0.080410
 H         1.969420        -1.929281        -0.777619
 H         1.991020        -0.474311         2.829315
 H         3.701564        -0.550344         2.388985
 H         2.773011         2.133277         2.349658
