19
Iteration:  3182
 C         4.745078         0.100347        -0.448189
 C         3.247628         0.367971        -0.269152
 C         2.238469         1.092727        -1.138498
 C         1.327686         0.292260        -0.113840
 C         2.344351        -0.856448        -0.316177
 O         2.472721        -1.696737         0.843684
 C         2.576227        -0.666116         1.917581
 C         2.474346         0.688522         1.106455
 O         2.640200         1.835346         1.802973
 H         5.318179         0.566620         0.372928
 H         5.033123        -0.961278        -0.609186
 H         5.002952         0.553159        -1.365040
 H         2.211452         2.239326        -1.069916
 H         2.228962         0.640140        -2.132852
 H         0.259240         0.306206        -0.055938
 H         2.260722        -1.529584        -1.203163
 H         1.862997        -0.863100         2.748265
 H         3.512776        -0.779292         2.458185
 H         2.165171         1.729624         2.621998
