19
Iteration:  3218
 C         4.768212         0.247856        -0.479961
 C         3.287307         0.243353        -0.297684
 C         2.256304         1.254373        -0.971356
 C         1.402288         0.338559         0.003033
 C         2.293664        -0.932592        -0.308179
 O         2.457058        -1.727776         0.869390
 C         2.488092        -0.759001         1.969562
 C         2.524879         0.553854         1.020761
 O         2.638221         1.798221         1.661008
 H         5.157781         1.186473        -0.014422
 H         5.236795        -0.534326         0.155268
 H         5.164478         0.124878        -1.542221
 H         2.383715         2.286969        -0.722867
 H         2.113493         1.119790        -2.095849
 H         0.382206         0.392134         0.196305
 H         2.043771        -1.443317        -1.268766
 H         1.532178        -0.677771         2.505538
 H         3.384792        -0.974654         2.608056
 H         1.938504         2.371849         1.430356
