19
Iteration:    49charge 0 multiplicity 1
 C         4.801542         0.120602        -0.451849
 C         3.346349         0.128263        -0.229190
 C         2.327929         0.832690        -1.235077
 C         1.439310         0.261921        -0.111395
 C         2.346775        -1.066674        -0.118200
 O         2.378694        -1.566584         1.173381
 C         2.527517        -0.376969         2.013932
 C         2.450752         0.681116         0.975793
 O         2.451338         1.986298         1.525215
 H         5.471876        -0.416310         0.385842
 H         4.804475        -0.505526        -1.372190
 H         5.246944         1.070600        -0.808719
 H         2.492157         1.900228        -1.386174
 H         1.999728         0.256371        -2.243876
 H         0.346046         0.247669         0.065582
 H         2.152762        -1.852429        -0.883520
 H         1.789949        -0.299343         2.868984
 H         3.658299        -0.271665         2.140353
 H         2.971113         2.533123         0.913444
