19
Iteration:  1817charge 0 multiplicity 1
 C         4.846598         0.086348        -0.431583
 C         3.358832         0.211112        -0.280897
 C         2.215185         0.831213        -1.287995
 C         1.385710         0.205355        -0.097337
 C         2.289374        -0.938500        -0.126066
 O         2.557183        -1.602901         1.139325
 C         2.399565        -0.452668         2.010588
 C         2.405801         0.716589         0.969361
 O         2.579795         1.961310         1.592985
 H         5.198888        -0.190641         0.529691
 H         5.014921        -0.775045        -1.132993
 H         5.396339         0.886159        -0.805369
 H         2.180192         2.037601        -1.406253
 H         2.281968         0.365917        -2.220514
 H         0.322666         0.238327        -0.017298
 H         2.459366        -1.723802        -0.955792
 H         1.503593        -0.487462         2.622542
 H         3.288888        -0.332927         2.593490
 H         2.455110         2.682299         0.984992
