19
Iteration:  2771charge 0 multiplicity 1
 C         4.907433         0.277470        -0.476859
 C         3.336195         0.169477        -0.313224
 C         2.282843         1.029015        -1.039163
 C         1.422241         0.318417         0.009114
 C         2.297810        -0.986431        -0.234132
 O         2.259594        -1.742286         1.042343
 C         2.589209        -0.618563         2.004355
 C         2.491389         0.611015         0.954229
 O         2.454280         1.900896         1.490551
 H         5.575554         0.215448         0.399994
 H         5.309680        -0.332750        -1.273339
 H         5.129066         1.272724        -0.761070
 H         2.417424         2.024168        -0.686590
 H         2.148498         1.104264        -2.102972
 H         0.426475         0.687704         0.237262
 H         1.995807        -1.654513        -1.113379
 H         1.801265        -0.625636         2.748472
 H         3.484221        -0.674320         2.530018
 H         3.453097         2.175238         1.612963
