19
Iteration:  2550charge 0 multiplicity 1
 C         4.783945         0.158758        -0.327635
 C         3.348887         0.124192        -0.358153
 C         2.222547         1.017965        -1.098198
 C         1.386554         0.290638        -0.063876
 C         2.310291        -0.988200        -0.223079
 O         2.404028        -1.643307         1.099509
 C         2.588024        -0.526059         1.968682
 C         2.500285         0.623048         0.913957
 O         2.564620         1.922801         1.526744
 H         5.230824         0.551590        -1.279980
 H         5.251987         0.760667         0.520552
 H         5.228719        -0.841652        -0.174462
 H         2.414570         2.177515        -0.842173
 H         2.221012         0.842711        -2.149642
 H         0.267871         0.161932         0.047500
 H         2.030105        -1.833431        -1.009610
 H         1.606155        -0.433900         2.502617
 H         3.552879        -0.587580         2.579258
 H         2.116249         2.667921         1.019066
