19
Iteration:  2532
 C         4.825504         0.118738        -0.370313
 C         3.319443         0.276226        -0.249177
 C         2.293523         0.932076        -1.244712
 C         1.419714         0.313877        -0.087909
 C         2.248444        -0.989760        -0.184550
 O         2.358858        -1.633044         1.048241
 C         2.625515        -0.492455         1.970266
 C         2.504032         0.631442         1.040020
 O         2.508061         1.886260         1.571380
 H         5.367214         0.636080        -1.221559
 H         5.301547         0.692762         0.448677
 H         5.227686        -0.946593        -0.413460
 H         2.354744         1.991295        -1.272529
 H         2.014708         0.335313        -2.150198
 H         0.299468         0.425678         0.170015
 H         2.262187        -1.630107        -0.995029
 H         1.931985        -0.614252         2.809679
 H         3.711015        -0.575823         2.176806
 H         1.924934         2.498464         1.028044
