19
Iteration:   812charge 0 multiplicity 1
 C         4.818886         0.210973        -0.405905
 C         3.332800         0.221100        -0.279854
 C         2.245943         0.866178        -1.239700
 C         1.350956         0.188666        -0.078420
 C         2.318131        -1.068173        -0.124293
 O         2.470169        -1.671158         1.185392
 C         2.446701        -0.346523         2.030525
 C         2.457869         0.645959         0.952948
 O         2.625076         1.962413         1.456392
 H         5.235383        -0.714364         0.071800
 H         5.053254         0.205019        -1.526932
 H         5.331429         1.003209         0.109681
 H         2.012646         2.000234        -1.137243
 H         2.237770         0.452579        -2.179489
 H         0.307919         0.070279         0.012957
 H         2.154190        -1.715813        -1.030315
 H         1.483252        -0.205387         2.602137
 H         3.276416        -0.620913         2.709439
 H         2.835345         2.591674         0.815004
