19
Iteration:  1922
 C         4.796991         0.147512        -0.353997
 C         3.310954         0.262764        -0.204935
 C         2.241018         0.818259        -1.207036
 C         1.316899         0.171361        -0.231507
 C         2.255069        -1.060593        -0.131955
 O         2.473386        -1.615207         1.160246
 C         2.532200        -0.406211         1.992529
 C         2.454231         0.704773         0.981402
 O         2.598159         1.965208         1.477426
 H         5.305550        -0.879724        -0.121843
 H         4.999921         0.366669        -1.421363
 H         5.300671         0.998914         0.332459
 H         2.337585         1.922176        -1.251564
 H         2.205267         0.486895        -2.364683
 H         0.320713         0.328650         0.208352
 H         2.312059        -1.872381        -0.824299
 H         1.850547        -0.374769         2.882306
 H         3.595893        -0.392089         2.432421
 H         2.837324         2.506742         0.769202
