19
Iteration:   483charge 0 multiplicity 1
 C         4.890561         0.169019        -0.430861
 C         3.291295         0.120931        -0.253203
 C         2.295988         0.808828        -1.268845
 C         1.348703         0.293287        -0.093381
 C         2.385908        -1.014427        -0.094456
 O         2.379301        -1.650910         1.219246
 C         2.444272        -0.482638         2.000398
 C         2.448322         0.704183         0.917489
 O         2.608690         2.001815         1.484774
 H         5.518584        -0.189844         0.436248
 H         5.165769        -0.226890        -1.393147
 H         5.016855         1.249741        -0.485418
 H         2.277220         1.890343        -1.130762
 H         2.122590         0.627455        -2.340367
 H         0.303810         0.020717         0.048937
 H         2.487299        -1.795658        -0.958393
 H         1.494847        -0.402372         2.557755
 H         3.285944        -0.380201         2.718453
 H         2.363232         2.744383         0.937206
