19
Iteration:  4932charge 0 multiplicity 1
 C         4.702662         0.239024        -0.428671
 C         3.221031         0.370202        -0.219737
 C         2.299400         1.171366        -1.154279
 C         1.338472         0.367017        -0.131808
 C         2.400453        -0.840568        -0.345440
 O         2.476877        -1.716394         0.854624
 C         2.511289        -0.691958         1.861969
 C         2.402395         0.524910         1.082920
 O         2.699846         1.640993         1.941933
 H         4.916653        -0.247776        -1.396585
 H         4.890343         1.384514        -0.598219
 H         5.288504        -0.239820         0.369409
 H         2.346404         2.250502        -0.955697
 H         1.991239         0.791817        -2.094618
 H         0.219437         0.236657        -0.274875
 H         2.272845        -1.409981        -1.243885
 H         1.649056        -0.805461         2.530696
 H         3.471803        -0.679623         2.460303
 H         2.726986         2.579389         1.461933
