19
Iteration:  1037
 C         4.830575         0.162095        -0.332515
 C         3.316004         0.191848        -0.299807
 C         2.233320         0.850303        -1.211959
 C         1.354924         0.230755        -0.160389
 C         2.289106        -1.046637        -0.142947
 O         2.374985        -1.617738         1.193368
 C         2.647727        -0.438069         2.035998
 C         2.477931         0.609208         0.938653
 O         2.540182         2.015759         1.480460
 H         5.440302        -0.733241         0.003050
 H         5.255103         0.416840        -1.292839
 H         5.117005         1.121087         0.228615
 H         2.259581         1.915264        -1.306336
 H         2.208202         0.447476        -2.289043
 H         0.177026         0.062599        -0.071872
 H         2.160398        -1.882953        -0.852251
 H         1.840392        -0.168413         2.712950
 H         3.603429        -0.557941         2.450684
 H         2.599978         2.641901         0.692246
