19
Iteration:   480charge 0 multiplicity 1
 C         4.890010         0.156890        -0.426386
 C         3.284223         0.111217        -0.247912
 C         2.291556         0.804812        -1.242947
 C         1.352019         0.281571        -0.069308
 C         2.393688        -1.015334        -0.103866
 O         2.388207        -1.659958         1.215077
 C         2.423055        -0.464950         1.977000
 C         2.438587         0.700737         0.937679
 O         2.627520         2.006982         1.464484
 H         5.531852        -0.151779         0.388792
 H         5.261464        -0.260064        -1.364114
 H         4.989463         1.334391        -0.513113
 H         2.249609         1.988534        -1.214796
 H         2.108406         0.744721        -2.262216
 H         0.346498        -0.011680        -0.027283
 H         2.459854        -1.681324        -0.908868
 H         1.472621        -0.465912         2.502266
 H         3.239679        -0.330202         2.699155
 H         2.316721         2.721437         0.917429
