19
Iteration:  4481charge 0 multiplicity 1
 C         4.805317         0.280518        -0.319916
 C         3.323812         0.302728        -0.222985
 C         2.345590         1.068258        -1.146610
 C         1.352478         0.368198        -0.061195
 C         2.237325        -0.834046        -0.372253
 O         2.307868        -1.695777         0.817805
 C         2.565879        -0.737089         1.794646
 C         2.502832         0.609607         1.084825
 O         2.658073         1.711649         1.859041
 H         5.114867         0.965215        -1.098982
 H         5.126966         0.893467         0.479099
 H         5.313287        -0.677751        -0.384680
 H         2.662223         2.140650        -1.182863
 H         2.183527         0.693820        -2.218460
 H         0.292636         0.278682         0.006123
 H         2.195528        -1.439560        -1.254178
 H         1.703269        -0.809374         2.504448
 H         3.507802        -0.981372         2.359369
 H         1.950219         2.322634         1.857776
