19
Iteration:  4908
 C         4.857626         0.173767        -0.421654
 C         3.266638         0.369021        -0.258608
 C         2.252386         1.217662        -0.971105
 C         1.295383         0.333271        -0.079915
 C         2.272623        -0.898801        -0.338246
 O         2.497672        -1.697715         0.784351
 C         2.555824        -0.751449         1.845543
 C         2.493605         0.538486         1.073832
 O         2.595157         1.789292         1.800867
 H         5.172735        -0.190883        -1.394065
 H         5.419787         1.126207        -0.188111
 H         5.074504        -0.630031         0.329285
 H         2.217317         2.293450        -0.659857
 H         2.149620         0.958497        -2.022259
 H         0.174578         0.335668         0.133572
 H         2.178209        -1.583557        -1.210669
 H         1.696692        -0.937692         2.572802
 H         3.532597        -0.864757         2.372145
 H         2.078232         2.586011         1.477039
