19
Iteration:    34
 C         4.829734         0.104060        -0.498605
 C         3.333148         0.159018        -0.294886
 C         2.350861         0.823192        -1.186275
 C         1.414510         0.272926        -0.051479
 C         2.357375        -1.000869        -0.076458
 O         2.291166        -1.639749         1.245372
 C         2.608327        -0.396889         1.946988
 C         2.457248         0.705757         0.918992
 O         2.466837         1.963831         1.476797
 H         5.279614        -0.284120         0.422361
 H         5.261105        -0.465111        -1.315692
 H         5.195500         1.108647        -0.560415
 H         2.440548         1.885810        -1.180494
 H         2.313424         0.450484        -2.204317
 H         0.343312         0.357768         0.097188
 H         2.330997        -1.731166        -0.868904
 H         1.862080        -0.346902         2.736732
 H         3.554691        -0.518393         2.384768
 H         2.172384         2.695988         0.815974
