19
Iteration:  3727charge 0 multiplicity 1
 C         4.899705         0.179986        -0.407559
 C         3.312371         0.391781        -0.189495
 C         2.283111         1.070320        -1.179914
 C         1.387051         0.444047        -0.051677
 C         2.332337        -0.830892        -0.308006
 O         2.364745        -1.674660         0.734416
 C         2.474367        -0.767670         1.828457
 C         2.428584         0.601983         1.116797
 O         2.592906         1.685310         1.963739
 H         5.009907        -0.824386        -0.906595
 H         5.228246         1.100032        -0.962685
 H         5.378555         0.158095         0.575549
 H         2.277695         2.226233        -1.284739
 H         2.044452         0.562116        -2.085622
 H         0.325139         0.424493        -0.074636
 H         2.133820        -1.233795        -1.367537
 H         1.669346        -0.785209         2.549465
 H         3.476722        -0.932037         2.234395
 H         2.825191         2.399790         1.431077
