19
Iteration:  1701charge 0 multiplicity 1
 C         4.776749         0.196642        -0.340213
 C         3.256764         0.136977        -0.296041
 C         2.216820         0.888351        -1.269353
 C         1.395073         0.216425        -0.136405
 C         2.369845        -1.010261        -0.102612
 O         2.535976        -1.607908         1.162539
 C         2.388671        -0.446623         2.028696
 C         2.421175         0.669394         1.002093
 O         2.677073         1.947383         1.462859
 H         5.262059        -0.702611         0.026745
 H         5.058544         0.285927        -1.406284
 H         5.288646         1.077588         0.147274
 H         2.294765         1.912224        -1.400363
 H         2.124243         0.319291        -2.305131
 H         0.244464         0.346496         0.117859
 H         2.261083        -1.853519        -0.840992
 H         1.355844        -0.332173         2.479643
 H         3.223037        -0.495316         2.779580
 H         2.686973         2.544860         0.740998
