19
Iteration:  2709charge 0 multiplicity 1
 C         4.769444         0.103762        -0.354268
 C         3.269425         0.271083        -0.334646
 C         2.165010         0.996680        -1.219072
 C         1.363850         0.254552        -0.109401
 C         2.274808        -1.031209        -0.298921
 O         2.562879        -1.612625         1.049004
 C         2.534759        -0.495072         1.970311
 C         2.477467         0.670006         0.966569
 O         2.590010         1.911736         1.655789
 H         4.934256        -0.991661        -0.266022
 H         5.236583         0.483470        -1.282353
 H         5.167930         0.780323         0.459876
 H         2.165157         2.052348        -1.143574
 H         2.182366         0.679005        -2.331564
 H         0.375594         0.489117         0.169735
 H         2.016888        -1.711081        -0.987767
 H         1.583166        -0.622570         2.507568
 H         3.412313        -0.597767         2.750184
 H         3.326862         1.765529         2.367828
