19
Iteration:  4576charge 0 multiplicity 1
 C         4.798656         0.216937        -0.340220
 C         3.275981         0.335754        -0.246831
 C         2.269998         1.250044        -0.955784
 C         1.430802         0.297860        -0.095237
 C         2.294213        -0.915645        -0.408390
 O         2.398895        -1.708944         0.767662
 C         2.531104        -0.735142         1.907242
 C         2.477987         0.552420         1.055245
 O         2.545601         1.767073         1.783548
 H         5.187153        -0.124692        -1.383893
 H         5.316728         1.165095        -0.256188
 H         5.046142        -0.567840         0.388807
 H         2.327248         2.286171        -0.788159
 H         2.091286         1.146923        -2.014587
 H         0.383257         0.455457         0.065669
 H         2.244510        -1.510658        -1.367877
 H         1.631794        -0.927431         2.497229
 H         3.404388        -0.829866         2.527498
 H         3.407537         2.289121         1.492644
