19
Iteration:  3473
 C         4.805823         0.267830        -0.341790
 C         3.319559         0.267535        -0.290029
 C         2.272952         1.248609        -1.025977
 C         1.382665         0.402105        -0.045345
 C         2.247491        -0.847352        -0.332543
 O         2.413668        -1.733508         0.833303
 C         2.497895        -0.785952         1.844667
 C         2.500019         0.543837         1.049317
 O         2.658121         1.746529         1.682080
 H         5.213043        -0.258545        -1.245145
 H         5.284557         1.199293        -0.309420
 H         5.092928        -0.444241         0.501673
 H         2.485130         2.275293        -0.689512
 H         2.135195         0.994371        -2.063750
 H         0.264182         0.469547         0.055832
 H         2.103940        -1.434434        -1.173599
 H         1.643708        -0.814080         2.501463
 H         3.455429        -0.731113         2.384060
 H         1.965040         1.717511         2.456090
