19
Iteration:  1910
 C         4.827258         0.222130        -0.377919
 C         3.265263         0.162418        -0.220767
 C         2.288967         0.884333        -1.202427
 C         1.345132         0.162777        -0.142434
 C         2.306671        -1.036165        -0.130776
 O         2.362278        -1.612092         1.169575
 C         2.612738        -0.477115         2.054868
 C         2.405049         0.654422         0.982695
 O         2.601752         2.030330         1.418135
 H         5.154003        -0.831682        -0.027123
 H         5.139999         0.350271        -1.417867
 H         5.480137         0.984493         0.251545
 H         2.086937         2.006434        -1.205844
 H         2.261740         0.375968        -2.262017
 H         0.179582         0.109650        -0.288557
 H         2.355628        -1.712833        -0.915142
 H         1.872319        -0.609472         2.884333
 H         3.682831        -0.458052         2.402926
 H         2.846460         2.568477         0.596897
