19
Iteration:  3387charge 0 multiplicity 1
 C         4.849121         0.275313        -0.443145
 C         3.282505         0.298007        -0.308152
 C         2.308514         1.142007        -1.144346
 C         1.397353         0.335944        -0.050026
 C         2.229613        -0.875583        -0.332421
 O         2.343262        -1.673687         0.819682
 C         2.598450        -0.683257         1.835857
 C         2.517855         0.594367         1.029882
 O         2.531899         1.707743         1.923967
 H         5.218882        -0.503601        -1.174495
 H         5.205274         1.190245        -0.959146
 H         5.198800         0.133379         0.607380
 H         2.340151         2.246392        -0.898724
 H         2.329469         0.857813        -2.183016
 H         0.313631         0.603205         0.050538
 H         2.016039        -1.476005        -1.167047
 H         1.792065        -0.720170         2.601335
 H         3.538209        -0.889139         2.453514
 H         2.940863         1.314553         2.689091
