19
Iteration:  3201charge 0 multiplicity 1
 C         4.765028         0.185898        -0.468934
 C         3.334489         0.358105        -0.185653
 C         2.227109         1.133953        -1.042376
 C         1.350873         0.320806        -0.062479
 C         2.323785        -0.867582        -0.309554
 O         2.473014        -1.698396         0.855560
 C         2.496926        -0.693836         1.862510
 C         2.359648         0.528417         1.103097
 O         2.727978         1.847317         1.712392
 H         5.527102         0.754431         0.066931
 H         5.119177        -0.854648        -0.344553
 H         4.884467         0.263633        -1.569324
 H         2.213305         2.220386        -0.758361
 H         2.175382         0.847364        -2.075007
 H         0.162141         0.182416         0.006306
 H         2.421323        -1.522385        -1.162679
 H         1.755431        -1.022578         2.611525
 H         3.421298        -0.761305         2.466556
 H         1.921022         2.268341         1.885334
