19
Iteration:  1973
 C         4.847425         0.066389        -0.461341
 C         3.336040         0.194159        -0.244250
 C         2.293897         0.823235        -1.217703
 C         1.375238         0.271256        -0.102156
 C         2.289767        -0.979454        -0.114768
 O         2.508423        -1.623602         1.146213
 C         2.517939        -0.436354         1.979313
 C         2.476789         0.743219         0.951899
 O         2.512035         1.990917         1.544836
 H         5.175358        -0.752565         0.155366
 H         5.048320        -0.271862        -1.446956
 H         5.401836         0.904600        -0.154956
 H         2.028585         1.947559        -1.321879
 H         2.172593         0.253632        -2.071940
 H         0.251720         0.097798         0.027370
 H         2.222744        -1.672647        -0.983119
 H         1.526016        -0.467985         2.469566
 H         3.303347        -0.419664         2.709152
 H         2.008421         2.666105         1.048720
