19
Iteration:  4348
 C         4.884208         0.183827        -0.548979
 C         3.407033         0.284359        -0.280146
 C         2.295564         1.304661        -0.872376
 C         1.492585         0.338764        -0.167373
 C         2.345823        -0.872746        -0.351256
 O         2.336608        -1.698943         0.874026
 C         2.477437        -0.708879         1.866163
 C         2.397301         0.563913         1.091692
 O         2.478752         1.679327         1.862180
 H         5.011271        -0.610658        -1.323098
 H         5.370605         1.041971        -0.815600
 H         5.260051        -0.221360         0.348513
 H         2.085455         2.320962        -0.617362
 H         2.199890         1.407148        -1.983154
 H         0.412217         0.392291        -0.170379
 H         2.220084        -1.540338        -1.321622
 H         1.705251        -0.727053         2.661453
 H         3.481368        -0.904633         2.329827
 H         2.707740         2.365660         1.240677
