19
Iteration:  1677charge 0 multiplicity 1
 C         4.805989         0.159114        -0.416745
 C         3.317665         0.226663        -0.222077
 C         2.278019         0.850570        -1.093305
 C         1.342094         0.129829        -0.130745
 C         2.383783        -0.979963        -0.140261
 O         2.415425        -1.663274         1.143468
 C         2.486669        -0.448799         2.011111
 C         2.401619         0.676069         0.975203
 O         2.599241         2.030047         1.409551
 H         5.139778        -0.758656         0.109329
 H         5.182770         0.101754        -1.513205
 H         5.398850         0.977614         0.074560
 H         2.117679         1.875340        -1.053470
 H         2.365540         0.513782        -2.147147
 H         0.208252         0.283137        -0.115713
 H         2.351626        -1.826523        -0.899287
 H         1.606756        -0.270160         2.717409
 H         3.476260        -0.442942         2.496097
 H         2.828269         2.662054         0.663637
