19
Iteration:  3659
 C         4.816013         0.214654        -0.396094
 C         3.369547         0.353910        -0.186684
 C         2.266746         1.185191        -1.033959
 C         1.437075         0.362559        -0.005524
 C         2.339117        -0.830908        -0.315752
 O         2.269369        -1.789081         0.741165
 C         2.513615        -0.817179         1.890477
 C         2.479000         0.586557         1.121469
 O         2.617599         1.845656         1.749602
 H         5.146226        -0.111424        -1.480362
 H         5.296511         1.175066        -0.110543
 H         5.202815        -0.655467         0.275759
 H         2.369364         2.315718        -0.746971
 H         2.096359         0.925921        -2.110551
 H         0.326902         0.289034        -0.115852
 H         2.246699        -1.489963        -1.220646
 H         1.631935        -0.952469         2.532814
 H         3.493057        -1.113326         2.312428
 H         2.446832         2.397617         0.902850
