19
Iteration:  1208
 C         4.788693         0.167312        -0.392141
 C         3.358476         0.138663        -0.319108
 C         2.166421         0.849604        -1.186469
 C         1.416519         0.192949        -0.113168
 C         2.342866        -1.053912        -0.162634
 O         2.510234        -1.587825         1.175673
 C         2.378729        -0.366018         1.995784
 C         2.393607         0.669892         0.973410
 O         2.681151         1.972902         1.495937
 H         5.219151        -0.461496         0.404114
 H         5.181411        -0.155656        -1.392972
 H         5.221880         1.207397        -0.160536
 H         2.189241         2.032980        -1.386840
 H         2.098122         0.478695        -2.181364
 H         0.409843         0.051000        -0.008909
 H         2.331717        -1.943483        -0.737851
 H         1.521448        -0.508917         2.697090
 H         3.270484        -0.376342         2.672573
 H         2.459381         2.679341         0.778786
