19
Iteration:   696
 C         4.802978         0.105389        -0.364617
 C         3.295044         0.144326        -0.310812
 C         2.218276         0.922484        -1.187630
 C         1.381720         0.256305        -0.127999
 C         2.323497        -1.003241        -0.168708
 O         2.583144        -1.632893         1.134056
 C         2.433655        -0.433223         2.081251
 C         2.452690         0.703289         0.991463
 O         2.565580         1.965460         1.459449
 H         5.189408        -0.200141         0.582515
 H         5.171939        -0.574475        -1.125275
 H         5.287391         1.077083        -0.538975
 H         2.192594         1.955487        -1.224161
 H         2.024170         0.431875        -2.232366
 H         0.226830         0.145042        -0.080709
 H         2.261249        -1.697916        -0.939618
 H         1.552162        -0.354677         2.744787
 H         3.355978        -0.531916         2.684733
 H         2.572795         2.432710         0.655500
