19
Iteration:  4939charge 0 multiplicity 1
 C         4.771758         0.302193        -0.468973
 C         3.230399         0.339409        -0.256490
 C         2.291024         1.109426        -1.085381
 C         1.288371         0.361395        -0.150464
 C         2.326668        -0.852377        -0.334019
 O         2.456937        -1.652651         0.837390
 C         2.495417        -0.705165         1.859422
 C         2.482647         0.564014         1.079173
 O         2.673606         1.612782         1.964621
 H         4.973336        -0.267063        -1.343337
 H         5.114739         1.332066        -0.493316
 H         5.353080         0.016923         0.442408
 H         2.329093         2.230176        -1.265730
 H         2.141510         0.708433        -2.143041
 H         0.190668         0.211107        -0.104413
 H         2.365325        -1.565471        -1.208476
 H         1.578705        -0.745592         2.543884
 H         3.386751        -0.793289         2.478539
 H         2.946976         2.420366         1.523760
