19
Iteration:  4569
 C         4.815361         0.190533        -0.406629
 C         3.279823         0.359803        -0.236558
 C         2.271052         1.233641        -0.950845
 C         1.409423         0.367699        -0.091302
 C         2.316198        -0.902151        -0.356189
 O         2.429029        -1.750762         0.755622
 C         2.503822        -0.815675         1.931788
 C         2.495993         0.612993         1.088777
 O         2.519927         1.784214         1.731869
 H         5.179525        -0.105308        -1.396315
 H         5.306030         1.108769        -0.002700
 H         5.061352        -0.598812         0.356588
 H         2.323251         2.293673        -0.590098
 H         2.247247         1.172320        -2.061085
 H         0.312787         0.422164        -0.062004
 H         2.099660        -1.421574        -1.237235
 H         1.615337        -1.027236         2.536952
 H         3.429448        -0.948026         2.563878
 H         3.240542         2.346410         1.313696
