19
Iteration:  1885
 C         4.844249         0.268628        -0.373657
 C         3.312368         0.121943        -0.273887
 C         2.277656         0.887845        -1.185976
 C         1.443346         0.210794        -0.061826
 C         2.296051        -1.059906        -0.132465
 O         2.272792        -1.615740         1.182025
 C         2.580407        -0.449402         2.014915
 C         2.551285         0.614383         0.939616
 O         2.514019         1.964001         1.375781
 H         5.268907        -0.534684         0.201947
 H         5.252480         0.277041        -1.399895
 H         5.218830         1.199651         0.100926
 H         2.342755         2.078273        -1.079146
 H         1.991042         0.555483        -2.153252
 H         0.399435         0.350592         0.422357
 H         2.350295        -1.803536        -0.953562
 H         1.891379        -0.448866         2.872233
 H         3.598877        -0.551290         2.323251
 H         2.528613         2.515360         0.594146
