19
Iteration:  1433
 C         4.826928         0.046949        -0.360339
 C         3.327117         0.251785        -0.292353
 C         2.232534         0.893130        -1.150013
 C         1.381467         0.151803        -0.125941
 C         2.297760        -1.027594        -0.125143
 O         2.506254        -1.554914         1.136952
 C         2.462431        -0.364811         2.020062
 C         2.511035         0.663305         0.974215
 O         2.519615         1.937085         1.461587
 H         5.427286        -0.621631         0.290109
 H         5.052036        -0.248420        -1.411315
 H         5.272911         1.032681        -0.369257
 H         2.196108         1.986856        -1.343442
 H         2.320350         0.426140        -2.245394
 H         0.368774         0.187227         0.001185
 H         2.157302        -1.815108        -0.941284
 H         1.614272        -0.435510         2.769866
 H         3.411306        -0.228562         2.585068
 H         2.398361         2.574393         0.782820
