19
Iteration:   766charge 0 multiplicity 1
 C         4.811547         0.195300        -0.443797
 C         3.368875         0.192429        -0.286564
 C         2.323947         0.823224        -1.184140
 C         1.444866         0.194789        -0.090523
 C         2.264041        -1.063038        -0.081390
 O         2.302163        -1.683799         1.158026
 C         2.653372        -0.373427         1.965092
 C         2.488999         0.686694         0.961720
 O         2.448761         1.989448         1.500954
 H         5.197896        -0.761904         0.026706
 H         5.142560         0.252616        -1.482656
 H         5.384222         0.916157         0.173666
 H         2.533305         1.953166        -1.214811
 H         2.202619         0.333470        -2.119624
 H         0.400910         0.374452        -0.075168
 H         2.101051        -1.752495        -1.022266
 H         1.894794        -0.270599         2.759943
 H         3.709671        -0.119307         2.405138
 H         2.246013         2.653800         0.900719
