19
Iteration:    27
 C         4.860644         0.107584        -0.482395
 C         3.333155         0.165512        -0.295442
 C         2.301747         0.855954        -1.222817
 C         1.410911         0.238101        -0.118050
 C         2.288829        -1.021365        -0.102584
 O         2.297481        -1.606707         1.234958
 C         2.627884        -0.424468         2.049345
 C         2.509691         0.673741         0.982802
 O         2.489306         1.997803         1.459490
 H         5.355441        -0.342034         0.522503
 H         5.306406        -0.405373        -1.365091
 H         5.261096         1.136279        -0.578901
 H         2.361579         1.947800        -1.161378
 H         2.354933         0.413314        -2.345202
 H         0.313627         0.332459        -0.061720
 H         2.214621        -1.801462        -0.887342
 H         1.720572        -0.329350         2.670534
 H         3.724525        -0.564477         2.422337
 H         1.902513         2.561692         0.924897
