19
Iteration:  1294charge 0 multiplicity 1
 C         4.812924         0.093234        -0.350636
 C         3.294540         0.252068        -0.304631
 C         2.229992         0.802228        -1.267858
 C         1.391457         0.287015        -0.165385
 C         2.343550        -1.037914        -0.083874
 O         2.455196        -1.672168         1.207643
 C         2.613212        -0.379149         1.968072
 C         2.405297         0.745406         0.900754
 O         2.513659         1.949077         1.519362
 H         5.064839        -0.884335         0.130816
 H         5.154820        -0.045392        -1.433554
 H         5.410913         0.869629         0.227642
 H         2.375735         1.916587        -1.413293
 H         2.325290         0.356632        -2.285763
 H         0.244025         0.279968         0.197464
 H         2.428442        -1.857467        -0.765839
 H         1.792933        -0.239961         2.675880
 H         3.563222        -0.378502         2.503208
 H         2.147443         2.744332         1.150688
