19
Iteration:   521charge 0 multiplicity 1
 C         4.850127         0.119363        -0.373986
 C         3.358447         0.164105        -0.255953
 C         2.304638         0.742069        -1.292030
 C         1.361861         0.249409        -0.135722
 C         2.331260        -0.954708        -0.119898
 O         2.342641        -1.559648         1.182983
 C         2.644895        -0.418697         1.994385
 C         2.426414         0.704780         0.887300
 O         2.429847         1.942035         1.589767
 H         5.355646        -0.679445         0.123954
 H         5.096545        -0.033735        -1.450105
 H         5.323814         1.081278        -0.115518
 H         2.464210         1.839707        -1.507926
 H         2.272182         0.305670        -2.370370
 H         0.249319         0.257728         0.112911
 H         2.272578        -1.717804        -0.834956
 H         1.980066        -0.264161         2.871769
 H         3.682739        -0.564081         2.341682
 H         2.703191         2.727719         0.998486
