19
Iteration:  1830
 C         4.791562         0.068705        -0.417757
 C         3.253958         0.303192        -0.212603
 C         2.243519         0.759132        -1.229087
 C         1.319898         0.286640        -0.196126
 C         2.472618        -1.025191        -0.126786
 O         2.507579        -1.597199         1.144339
 C         2.448407        -0.410083         1.952490
 C         2.434413         0.699271         0.965200
 O         2.633206         1.952787         1.619252
 H         5.366121        -0.254952         0.443742
 H         4.986914        -0.714663        -1.236592
 H         5.255883         1.074825        -0.716062
 H         2.259688         1.965977        -1.493552
 H         1.992080         0.227015        -2.109274
 H         0.166818         0.197637        -0.121253
 H         2.262432        -1.744023        -0.990232
 H         1.481407        -0.474143         2.531448
 H         3.236888        -0.438962         2.678749
 H         2.278858         2.641744         0.956144
