19
Iteration:  2271
 C         4.860960         0.279495        -0.360598
 C         3.368118         0.193829        -0.235820
 C         2.288278         0.798361        -1.314973
 C         1.368578         0.304205        -0.096608
 C         2.213114        -1.053711        -0.107343
 O         2.315363        -1.627018         1.147390
 C         2.596686        -0.478954         1.983955
 C         2.501148         0.647105         0.934845
 O         2.551296         1.943872         1.560749
 H         5.345330        -0.155278         0.548063
 H         5.068224        -0.369226        -1.207661
 H         5.221432         1.338178        -0.599969
 H         2.292721         1.851578        -1.641867
 H         2.103219         0.241458        -2.122313
 H         0.222161         0.142764        -0.002905
 H         2.274462        -1.715228        -0.956003
 H         2.020134        -0.392464         2.986999
 H         3.677622        -0.565772         2.174429
 H         2.642497         2.616040         0.832741
