19
Iteration:  4477
 C         4.797259         0.297725        -0.303713
 C         3.292624         0.285627        -0.165593
 C         2.348374         1.110449        -1.163602
 C         1.371698         0.372728        -0.021839
 C         2.221892        -0.872516        -0.408518
 O         2.320883        -1.705229         0.766199
 C         2.564801        -0.771130         1.842803
 C         2.506561         0.607864         1.098207
 O         2.682661         1.744610         1.813964
 H         5.077328         1.044186        -1.228141
 H         5.079734         0.924305         0.596030
 H         5.253672        -0.712932        -0.332052
 H         2.649240         2.145704        -1.141809
 H         2.310147         0.598854        -2.149908
 H         0.272025         0.237494         0.065003
 H         2.111875        -1.563868        -1.359893
 H         1.736947        -0.650133         2.588425
 H         3.456242        -1.082713         2.385031
 H         1.864001         2.399130         1.735023
