19
Iteration:  2041charge 0 multiplicity 1
 C         4.754749         0.150333        -0.423734
 C         3.357416         0.208772        -0.283397
 C         2.254140         0.825451        -1.253128
 C         1.453295         0.267577        -0.104622
 C         2.303494        -0.977788        -0.133000
 O         2.369765        -1.617349         1.158020
 C         2.554346        -0.475349         1.986960
 C         2.522972         0.670047         0.940907
 O         2.517457         1.935414         1.550457
 H         5.194704         0.108559         0.579561
 H         5.166703        -0.639182        -0.932222
 H         5.096519         1.133551        -0.771364
 H         2.434438         1.967740        -1.373337
 H         2.053412         0.208087        -2.103151
 H         0.360995         0.214614         0.207307
 H         2.244809        -1.660877        -0.913505
 H         1.742723        -0.284007         2.709713
 H         3.484296        -0.526610         2.552214
 H         2.720741         2.704594         0.926397
