19
Iteration:  1774charge 0 multiplicity 1
 C         4.844633         0.104312        -0.401662
 C         3.340159         0.238377        -0.230516
 C         2.370028         0.928053        -1.192725
 C         1.356663         0.219595        -0.083089
 C         2.307212        -1.064853        -0.138677
 O         2.360954        -1.635528         1.168551
 C         2.649759        -0.442742         2.011600
 C         2.433333         0.661523         0.950225
 O         2.451108         1.964369         1.453113
 H         5.503593        -0.208523         0.403296
 H         5.074023        -0.558808        -1.314072
 H         5.178905         1.099262        -0.716052
 H         2.152365         2.116023        -1.113012
 H         2.393678         0.681947        -2.203712
 H         0.266419         0.250267         0.108860
 H         1.960985        -1.716611        -1.020698
 H         1.911286        -0.424184         2.836863
 H         3.642286        -0.454367         2.410474
 H         2.400864         2.565707         0.661200
