19
Iteration:  3787
 C         4.800785         0.266336        -0.330085
 C         3.242203         0.265628        -0.206270
 C         2.439703         1.256979        -0.956518
 C         1.331511         0.356959        -0.032551
 C         2.243679        -0.880674        -0.498186
 O         2.364031        -1.750040         0.811077
 C         2.528050        -0.726988         1.832438
 C         2.408533         0.525767         1.106356
 O         2.685587         1.739940         1.715522
 H         5.236648        -0.560794        -0.856652
 H         5.316415         1.145658        -0.793160
 H         5.295291         0.417442         0.704328
 H         2.622834         2.277528        -0.658599
 H         2.374767         0.963780        -2.088712
 H         0.223621         0.527299         0.239459
 H         2.085534        -1.530331        -1.311239
 H         1.720072        -0.824645         2.627981
 H         3.450822        -1.045171         2.350818
 H         2.049665         2.358368         1.347596
