19
Iteration:   506charge 0 multiplicity 1
 C         4.823805         0.173437        -0.454113
 C         3.297405         0.246188        -0.288128
 C         2.383682         0.793287        -1.269810
 C         1.471540         0.228370        -0.135603
 C         2.244035        -1.021486        -0.115553
 O         2.338252        -1.556679         1.203827
 C         2.572734        -0.366826         1.984810
 C         2.505116         0.643657         1.034097
 O         2.481284         1.895186         1.563309
 H         5.208325        -0.507380         0.376846
 H         5.201138        -0.131660        -1.444034
 H         5.232203         1.109386        -0.218441
 H         2.121482         1.735736        -1.653418
 H         2.274064         0.094601        -2.142211
 H         0.361783         0.147495        -0.331457
 H         2.074283        -1.787666        -1.013511
 H         1.779350        -0.400825         2.748126
 H         3.562707        -0.234439         2.479616
 H         2.591776         2.548054         0.842598
