19
Iteration:  3867
 C         4.793120         0.191421        -0.480828
 C         3.321406         0.278994        -0.195152
 C         2.421739         1.239011        -1.059175
 C         1.426591         0.435391        -0.134449
 C         2.296359        -0.883792        -0.308713
 O         2.389863        -1.734597         0.829965
 C         2.501846        -0.760066         1.906769
 C         2.375714         0.582372         1.079453
 O         2.503715         1.747248         1.876739
 H         4.997069        -0.041116        -1.598850
 H         5.247996         1.115529        -0.177089
 H         5.426059        -0.590822        -0.023011
 H         2.477243         2.326193        -0.929736
 H         2.265680         1.072836        -2.170585
 H         0.382830         0.234062        -0.016556
 H         2.122983        -1.488208        -1.274889
 H         1.752082        -1.002431         2.701796
 H         3.581301        -0.824733         2.226323
 H         2.903521         2.336447         1.243910
