19
Iteration:  2092charge 0 multiplicity 1
 C         4.734977         0.222184        -0.330636
 C         3.268792         0.136859        -0.349144
 C         2.229921         0.862838        -1.238497
 C         1.326858         0.271102        -0.118995
 C         2.347220        -1.061378        -0.133797
 O         2.470336        -1.582040         1.145122
 C         2.507637        -0.428390         2.036948
 C         2.492839         0.646934         0.961920
 O         2.695026         1.909223         1.497789
 H         5.178309        -0.214732         0.605168
 H         5.160922        -0.509903        -1.168963
 H         5.083640         1.247282        -0.404196
 H         2.183150         2.034876        -1.219249
 H         2.201003         0.625486        -2.335006
 H         0.180747         0.227405         0.053339
 H         2.387829        -1.939019        -0.913051
 H         1.450250        -0.258129         2.429068
 H         3.257482        -0.487315         2.851312
 H         2.482500         2.580931         0.858441
