19
Iteration:   189
 C         4.753809         0.152149        -0.455255
 C         3.290018         0.128179        -0.309726
 C         2.297669         0.795174        -1.288338
 C         1.397729         0.317257        -0.110724
 C         2.415110        -1.051021        -0.034304
 O         2.448280        -1.648614         1.236526
 C         2.519189        -0.436603         2.006915
 C         2.501389         0.724317         0.932893
 O         2.505827         2.060414         1.414640
 H         4.963531        -0.735920         0.247456
 H         4.906461        -0.248594        -1.425126
 H         5.174517         1.049718        -0.250797
 H         2.412456         1.807628        -1.279132
 H         1.940077         0.537776        -2.332534
 H         0.304074         0.367984         0.144066
 H         2.313447        -1.815777        -0.897524
 H         1.550568        -0.292049         2.424605
 H         3.251819        -0.466756         2.770218
 H         2.924548         2.006340         2.253407
