19
Iteration:  4178
 C         4.795502         0.094710        -0.463838
 C         3.293772         0.358408        -0.169594
 C         2.345490         1.123730        -1.110175
 C         1.369660         0.363910        -0.171275
 C         2.396819        -0.819489        -0.392464
 O         2.440793        -1.701230         0.765915
 C         2.426672        -0.651897         1.914952
 C         2.338951         0.618479         1.150792
 O         2.587583         1.676262         1.952355
 H         5.060053         0.471509        -1.428146
 H         5.197706         1.049248        -0.019797
 H         5.169794        -0.953758        -0.256954
 H         2.339834         2.234085        -0.969209
 H         2.525464         0.768572        -2.113847
 H         0.267819         0.479640        -0.099522
 H         2.332888        -1.316381        -1.308869
 H         1.705087        -0.815516         2.755683
 H         3.474992        -0.675397         2.323827
 H         2.968090         2.439016         1.504436
