19
Iteration:  3537charge 0 multiplicity 1
 C         4.833202         0.250173        -0.401250
 C         3.318446         0.275419        -0.273343
 C         2.331608         1.212769        -1.012691
 C         1.398509         0.341981        -0.102499
 C         2.223381        -0.939097        -0.374474
 O         2.367899        -1.638028         0.886628
 C         2.478198        -0.664186         1.875898
 C         2.560970         0.512662         1.012508
 O         2.487426         1.708111         1.778325
 H         5.110019         0.611631        -1.393551
 H         5.363436         0.528760         0.465396
 H         5.317058        -0.817900        -0.573634
 H         2.586022         2.205603        -0.541941
 H         2.360196         1.225899        -2.177435
 H         0.318796         0.469555         0.208414
 H         2.175109        -1.529738        -1.199700
 H         1.624225        -0.819269         2.596309
 H         3.454699        -0.783608         2.372823
 H         3.364591         2.250630         1.885354
