19
Iteration:  3226charge 0 multiplicity 1
 C         4.769082         0.289959        -0.484063
 C         3.341661         0.188605        -0.333779
 C         2.239565         1.233284        -0.964709
 C         1.455260         0.391199         0.000739
 C         2.212141        -0.909827        -0.318869
 O         2.438267        -1.751287         0.885653
 C         2.517993        -0.707443         1.914572
 C         2.561802         0.481106         1.045810
 O         2.613773         1.808940         1.685900
 H         5.002524         1.303359        -0.124227
 H         5.253812        -0.319495         0.274975
 H         5.246814         0.022379        -1.347610
 H         2.392798         2.270048        -0.608872
 H         2.001566         1.114715        -2.021761
 H         0.431812         0.383318         0.193009
 H         2.038144        -1.564591        -1.202935
 H         1.597344        -0.707534         2.484991
 H         3.207777        -0.994838         2.640861
 H         1.936795         2.303662         1.220972
