19
Iteration:  3961charge 0 multiplicity 1
 C         4.843326         0.297402        -0.268670
 C         3.290510         0.327907        -0.238865
 C         2.203188         1.097615        -1.132195
 C         1.350299         0.407964        -0.165050
 C         2.277254        -0.821054        -0.396450
 O         2.338255        -1.747034         0.815601
 C         2.533450        -0.714871         1.861257
 C         2.515623         0.543072         1.034267
 O         2.735755         1.713197         1.911259
 H         5.398181         0.733834        -1.061325
 H         5.201855         0.654337         0.724395
 H         5.132981        -0.792872        -0.289143
 H         2.277987         2.182195        -1.220497
 H         1.925254         0.801296        -2.137857
 H         0.198612         0.302223        -0.228273
 H         2.260319        -1.525946        -1.176267
 H         1.744875        -0.611856         2.613340
 H         3.497421        -0.966155         2.264211
 H         2.122379         2.446771         1.526561
