19
Iteration:  4303
 C         4.864968         0.291914        -0.275443
 C         3.282266         0.332842        -0.307005
 C         2.248295         1.104766        -1.111032
 C         1.369915         0.489921         0.012167
 C         2.272404        -0.897313        -0.311013
 O         2.415702        -1.744795         0.774892
 C         2.462138        -0.796837         1.800886
 C         2.520370         0.542746         1.039439
 O         2.662806         1.734441         1.849536
 H         5.235605         0.061536        -1.291132
 H         5.105477         1.226495         0.067542
 H         5.139741        -0.387377         0.471370
 H         2.529787         2.145813        -1.143064
 H         2.091168         0.871331        -2.183765
 H         0.269473         0.578009         0.001118
 H         1.940107        -1.485429        -1.250917
 H         1.479760        -0.920482         2.311036
 H         3.282767        -0.899260         2.531022
 H         2.534683         2.494493         1.296333
