19
Iteration:  4433
 C         4.834567         0.280463        -0.221330
 C         3.305580         0.254803        -0.304212
 C         2.251327         1.334179        -0.946503
 C         1.346400         0.277385        -0.092665
 C         2.278167        -0.926200        -0.417744
 O         2.374284        -1.693215         0.781117
 C         2.466891        -0.654689         1.910009
 C         2.503987         0.448151         1.013985
 O         2.736640         1.718831         1.712958
 H         5.228096         0.281542        -1.357722
 H         5.303012         1.225333         0.175263
 H         5.191057        -0.695335         0.170610
 H         2.222433         2.358034        -0.517630
 H         2.222267         1.220110        -2.055559
 H         0.301961         0.238724         0.294083
 H         2.132458        -1.555417        -1.384873
 H         1.559741        -0.833002         2.526678
 H         3.355928        -0.839221         2.520896
 H         1.975495         2.356228         1.392286
