19
Iteration:  3732charge 0 multiplicity 1
 C         4.884422         0.212624        -0.389709
 C         3.317010         0.391014        -0.229467
 C         2.280725         1.039486        -1.122707
 C         1.413151         0.404623        -0.060007
 C         2.316663        -0.752300        -0.282470
 O         2.328059        -1.708797         0.694770
 C         2.478699        -0.715512         1.853755
 C         2.456601         0.632531         1.104702
 O         2.592418         1.662387         1.939132
 H         5.147897        -0.726825        -0.850307
 H         5.359632         0.930413        -1.076570
 H         5.329428         0.018957         0.607830
 H         2.264889         2.089252        -1.233882
 H         2.134756         0.613175        -2.183717
 H         0.288355         0.315169         0.053813
 H         2.173473        -1.213874        -1.219051
 H         1.710336        -0.973367         2.638216
 H         3.473372        -1.037705         2.218306
 H         2.722596         2.521269         1.393519
