19
Iteration:  1733charge 0 multiplicity 1
 C         4.843912         0.229523        -0.345742
 C         3.316348         0.145380        -0.286350
 C         2.248931         0.828332        -1.309828
 C         1.420095         0.238983        -0.075604
 C         2.290918        -1.040097        -0.098783
 O         2.413475        -1.648588         1.166238
 C         2.522264        -0.377059         1.916594
 C         2.441358         0.661583         0.905389
 O         2.593171         1.942056         1.582005
 H         5.308275        -0.587573         0.248746
 H         5.128999        -0.028915        -1.426345
 H         5.269594         1.250259         0.030228
 H         2.360316         1.849913        -1.496880
 H         2.071317         0.260409        -2.291643
 H         0.262364         0.416947         0.105724
 H         2.074134        -1.900529        -0.799942
 H         1.677401        -0.182140         2.675715
 H         3.467753        -0.369386         2.525398
 H         2.372807         2.698199         0.969103
