19
Iteration:  1529
 C         4.808379         0.216723        -0.402831
 C         3.328096         0.188174        -0.236224
 C         2.284613         0.765359        -1.222763
 C         1.338722         0.162959        -0.202378
 C         2.330509        -1.024823        -0.104056
 O         2.347057        -1.604675         1.141229
 C         2.582977        -0.378039         2.018268
 C         2.448555         0.704088         0.986398
 O         2.553004         1.987075         1.548405
 H         5.347571        -0.520524         0.283789
 H         5.061997        -0.134437        -1.427349
 H         5.354199         1.202402        -0.152414
 H         2.322165         1.855332        -1.513417
 H         2.260222         0.279055        -2.101290
 H         0.230050         0.063282        -0.256953
 H         2.319181        -1.737913        -1.010626
 H         1.954324        -0.212438         2.883849
 H         3.520566        -0.801700         2.361332
 H         2.861404         2.624544         0.845624
