19
Iteration:  4898charge 0 multiplicity 1
 C         4.839206         0.119391        -0.389480
 C         3.371027         0.299177        -0.296135
 C         2.205329         1.210463        -0.936484
 C         1.358586         0.292920         0.040569
 C         2.244082        -0.817488        -0.390677
 O         2.462021        -1.681376         0.780306
 C         2.618043        -0.741309         1.855971
 C         2.511343         0.561708         1.058467
 O         2.538223         1.789419         1.766323
 H         5.293143         0.066400        -1.371874
 H         5.275001         1.123253         0.015646
 H         5.323734        -0.668174         0.238090
 H         2.354047         2.317436        -0.795680
 H         1.882764         1.181874        -1.969368
 H         0.221318         0.336240         0.008171
 H         2.034201        -1.352540        -1.329385
 H         1.675030        -0.684336         2.467985
 H         3.484184        -0.981880         2.520922
 H         1.790996         2.173603         1.137080
