19
Iteration:  3552
 C         4.826617         0.202085        -0.443582
 C         3.335822         0.202683        -0.283025
 C         2.360492         1.233187        -0.919753
 C         1.441902         0.377838        -0.035243
 C         2.280610        -0.868421        -0.323432
 O         2.384145        -1.773000         0.810805
 C         2.479878        -0.732796         1.888695
 C         2.487205         0.554691         1.064535
 O         2.497984         1.830538         1.715943
 H         5.075441         0.963402        -1.207030
 H         5.202576         0.634794         0.511378
 H         5.136973        -0.806137        -0.559805
 H         2.372290         2.342127        -0.748528
 H         2.181364         1.179772        -1.958695
 H         0.350758         0.452985        -0.026191
 H         2.063668        -1.565674        -1.219114
 H         1.570157        -0.736487         2.488134
 H         3.241398        -1.039505         2.602645
 H         3.241229         2.359149         1.283297
