19
Iteration:  2242
 C         4.801519         0.252563        -0.365532
 C         3.339076         0.098872        -0.357985
 C         2.332481         0.928843        -1.175805
 C         1.343559         0.167028        -0.064410
 C         2.263726        -1.073240        -0.171579
 O         2.336158        -1.560378         1.200193
 C         2.554211        -0.419240         2.001369
 C         2.511536         0.595249         0.924891
 O         2.581227         1.959530         1.469474
 H         5.122093        -0.547970         0.273839
 H         5.271709         0.201025        -1.355655
 H         5.090781         1.157437         0.127251
 H         2.321355         2.097994        -1.030564
 H         2.175359         0.672698        -2.323208
 H         0.340356        -0.004442         0.081958
 H         2.389306        -1.885997        -1.004982
 H         1.898496        -0.257085         2.813080
 H         3.553795        -0.529382         2.506786
 H         2.504398         2.452722         0.682727
