19
Iteration:   252
 C         4.738515         0.096051        -0.366802
 C         3.281975         0.131899        -0.255960
 C         2.338573         0.811064        -1.219508
 C         1.417411         0.187292        -0.121108
 C         2.310534        -0.987357        -0.171824
 O         2.371569        -1.613840         1.186386
 C         2.607031        -0.403480         2.007051
 C         2.535456         0.662015         0.967397
 O         2.462991         2.077935         1.434881
 H         5.156250        -0.165760         0.544362
 H         5.198469        -0.494797        -1.118886
 H         5.223243         1.108068        -0.488652
 H         2.279930         1.849132        -1.080564
 H         2.002692         0.463070        -2.179108
 H         0.361340         0.043913         0.091693
 H         2.233602        -1.681092        -1.056482
 H         1.789717        -0.273134         2.748581
 H         3.584247        -0.462675         2.548715
 H         3.159236         2.566103         0.954340
