19
Iteration:  3966charge 0 multiplicity 1
 C         4.880423         0.263817        -0.277443
 C         3.312935         0.301351        -0.256186
 C         2.156288         1.143578        -1.109828
 C         1.359097         0.352016        -0.131482
 C         2.299866        -0.861332        -0.355395
 O         2.303205        -1.695327         0.790343
 C         2.542078        -0.717737         1.839588
 C         2.520535         0.574833         1.033700
 O         2.696954         1.706068         1.887011
 H         5.551834         0.790155        -1.054499
 H         5.178115         0.773696         0.638214
 H         5.214534        -0.760526        -0.273492
 H         2.309121         2.239688        -1.121970
 H         2.006902         0.773014        -2.193788
 H         0.317872         0.390813        -0.081214
 H         2.233396        -1.525333        -1.297808
 H         1.726440        -0.669175         2.594614
 H         3.486233        -0.945337         2.434314
 H         2.221660         2.420487         1.576763
