19
Iteration:  4497
 C         4.891013         0.285186        -0.377673
 C         3.330089         0.287568        -0.318492
 C         2.270282         1.140043        -1.159375
 C         1.447037         0.431314        -0.153438
 C         2.324312        -0.931028        -0.302430
 O         2.310101        -1.696852         0.818958
 C         2.510244        -0.667332         1.905785
 C         2.409965         0.588835         0.987183
 O         2.639300         1.653031         1.976341
 H         5.281634         0.749933        -1.329008
 H         5.332291         0.634906         0.609386
 H         5.070850        -0.807173        -0.429093
 H         2.105610         2.197793        -0.957654
 H         2.248722         0.725810        -2.142751
 H         0.317242         0.553029        -0.101814
 H         2.100981        -1.546984        -1.231629
 H         1.910314        -0.603453         2.819511
 H         3.557507        -0.678498         2.205285
 H         1.795364         2.198016         1.829895
