19
Iteration:  1136charge 0 multiplicity 1
 C         4.821413         0.167073        -0.466270
 C         3.322116         0.242969        -0.284408
 C         2.330614         0.950327        -1.198968
 C         1.420549         0.159378        -0.132505
 C         2.310865        -1.063234        -0.126000
 O         2.326187        -1.596874         1.223868
 C         2.641975        -0.448309         2.013679
 C         2.513035         0.647629         1.006290
 O         2.436875         1.939134         1.455536
 H         5.205219         0.002696         0.537343
 H         5.145283        -0.692909        -1.003697
 H         5.464173         0.979136        -0.770988
 H         2.138560         1.943626        -1.275423
 H         2.206314         0.441656        -2.195462
 H         0.256935         0.368354        -0.051288
 H         2.007346        -1.754586        -0.880912
 H         2.002501        -0.378360         2.866370
 H         3.621972        -0.599619         2.391160
 H         2.513453         2.689870         0.750899
