19
Iteration:  4152
 C         4.855253         0.211472        -0.339797
 C         3.301103         0.347285        -0.312444
 C         2.308127         1.114399        -1.134004
 C         1.360052         0.442940        -0.076722
 C         2.234591        -0.835736        -0.322460
 O         2.397068        -1.708968         0.779031
 C         2.484407        -0.774396         1.863031
 C         2.538748         0.581111         1.042161
 O         2.579102         1.684804         1.907436
 H         5.411721        -0.054854        -1.274356
 H         5.192062         1.253129        -0.130060
 H         5.109448        -0.484177         0.457417
 H         2.518429         2.132638        -0.871212
 H         2.307977         0.916857        -2.241528
 H         0.329697         0.589705         0.196866
 H         2.262477        -1.438359        -1.293284
 H         1.602261        -0.811870         2.502019
 H         3.370035        -0.946771         2.476087
 H         2.390994         2.521212         1.530857
