19
Iteration:  2510
 C         4.839408         0.095588        -0.410596
 C         3.291355         0.245917        -0.273464
 C         2.371388         0.831547        -1.296949
 C         1.352971         0.264098        -0.154518
 C         2.323769        -0.919618        -0.169452
 O         2.358679        -1.654184         1.091739
 C         2.653136        -0.577508         1.948620
 C         2.442250         0.752840         1.030225
 O         2.483339         1.984234         1.733821
 H         5.196539         0.708836        -1.312551
 H         5.429257         0.599395         0.348870
 H         5.115151        -0.957425        -0.757400
 H         2.241287         1.869720        -1.268791
 H         2.175876         0.183171        -2.212500
 H         0.197888         0.398169        -0.205150
 H         2.133516        -1.480073        -1.014241
 H         1.955673        -0.494404         2.787040
 H         3.724275        -0.729673         2.187527
 H         2.167261         2.654677         1.139082
