19
Iteration:   792
 C         4.830481         0.220113        -0.455057
 C         3.350409         0.137935        -0.265667
 C         2.282545         0.895914        -1.196590
 C         1.389944         0.182506        -0.119179
 C         2.293433        -1.041820        -0.096660
 O         2.371629        -1.552239         1.195868
 C         2.524030        -0.543267         2.053319
 C         2.480987         0.640449         1.011032
 O         2.507464         1.990415         1.407171
 H         5.361403        -0.694696        -0.152227
 H         5.094229         0.381227        -1.580252
 H         5.333556         0.995231         0.105367
 H         2.414146         2.017759        -1.165000
 H         2.296314         0.397360        -2.169348
 H         0.301548         0.445509        -0.042805
 H         2.310619        -1.798484        -0.832737
 H         1.837515        -0.409301         2.896238
 H         3.537260        -0.423971         2.451073
 H         2.720712         2.520975         0.647341
