19
Iteration:  4373
 C         4.834918         0.177350        -0.508744
 C         3.362189         0.283938        -0.303877
 C         2.391460         1.159831        -1.084075
 C         1.389013         0.443144        -0.065873
 C         2.296714        -0.805234        -0.306133
 O         2.360987        -1.673500         0.813516
 C         2.580531        -0.739524         1.807067
 C         2.529777         0.609056         1.086614
 O         2.393841         1.643921         2.017765
 H         4.895188        -0.531792        -1.282199
 H         5.318518         1.137459        -0.792567
 H         5.307888        -0.237146         0.413972
 H         2.492189         2.228482        -1.181844
 H         2.408216         0.921975        -2.155523
 H         0.311628         0.393338         0.122123
 H         2.157072        -1.442441        -1.157483
 H         1.651518        -0.700520         2.365485
 H         3.430072        -0.951793         2.485612
 H         2.433774         2.451567         1.366015
