19
Iteration:  4112charge 0 multiplicity 1
 C         4.810595         0.322494        -0.293818
 C         3.325387         0.310043        -0.217536
 C         2.382364         1.290644        -0.977304
 C         1.317839         0.294716        -0.084088
 C         2.329144        -0.851843        -0.338376
 O         2.238412        -1.790099         0.768447
 C         2.540572        -0.784796         1.874408
 C         2.461202         0.490860         1.036451
 O         2.709766         1.768699         1.716965
 H         5.219639        -0.404412        -0.963347
 H         5.211062         1.301522        -0.706081
 H         5.209237         0.018337         0.727454
 H         2.150705         2.372012        -0.620245
 H         2.362010         1.156902        -2.067533
 H         0.230194         0.530846        -0.062992
 H         2.241180        -1.381644        -1.239190
 H         1.781241        -0.874170         2.693778
 H         3.477005        -1.328647         2.184355
 H         2.046406         2.421141         1.261855
