19
Iteration:  4931
 C         4.691002         0.235108        -0.425262
 C         3.230038         0.369627        -0.216515
 C         2.294028         1.178881        -1.158963
 C         1.350061         0.365920        -0.127939
 C         2.402312        -0.843031        -0.345141
 O         2.479895        -1.724526         0.854441
 C         2.515405        -0.693713         1.865159
 C         2.389887         0.531318         1.080026
 O         2.702319         1.647409         1.937613
 H         4.908337        -0.229849        -1.374105
 H         4.899134         1.373171        -0.615830
 H         5.278317        -0.281929         0.363434
 H         2.344233         2.264768        -0.919009
 H         1.998593         0.811005        -2.118681
 H         0.220687         0.251412        -0.282117
 H         2.265923        -1.397290        -1.269775
 H         1.637860        -0.821833         2.554496
 H         3.478471        -0.673030         2.453835
 H         2.689938         2.541988         1.461277
