19
Iteration:  1234
 C         4.802283         0.143089        -0.446659
 C         3.349358         0.190813        -0.231390
 C         2.254912         0.906283        -1.192618
 C         1.429318         0.236497        -0.108417
 C         2.287470        -1.011046        -0.091069
 O         2.456885        -1.634168         1.202598
 C         2.493154        -0.444504         2.036626
 C         2.490544         0.654911         0.960491
 O         2.505311         1.977050         1.397111
 H         5.253594        -0.750800        -0.032780
 H         5.057725         0.229599        -1.469727
 H         5.276608         1.011478        -0.024536
 H         2.332830         1.930971        -1.267950
 H         2.434044         0.425547        -2.209125
 H         0.280548         0.196734         0.054171
 H         2.254432        -1.886149        -0.773288
 H         1.560785        -0.561141         2.648299
 H         3.376800        -0.450602         2.743675
 H         2.594542         2.603512         0.592211
