19
Iteration:  4526charge 0 multiplicity 1
 C         4.823851         0.158316        -0.473006
 C         3.331232         0.290269        -0.291802
 C         2.352485         1.160673        -1.001772
 C         1.411939         0.353213        -0.099559
 C         2.332769        -0.807251        -0.296981
 O         2.423584        -1.691467         0.816188
 C         2.466746        -0.706301         1.880778
 C         2.485787         0.578384         1.024061
 O         2.503475         1.718779         1.894011
 H         5.168529         0.587886        -1.362260
 H         5.384711         0.722119         0.274684
 H         4.967789        -0.923027        -0.485347
 H         2.283188         2.274902        -0.754190
 H         2.303632         1.085939        -2.137311
 H         0.317728         0.350493        -0.067734
 H         2.270724        -1.367453        -1.176317
 H         1.586036        -0.652598         2.556368
 H         3.416089        -0.879714         2.486755
 H         2.116204         2.374131         1.379857
