19
Iteration:  4312charge 0 multiplicity 1
 C         4.727269         0.285361        -0.331741
 C         3.299840         0.299176        -0.219314
 C         2.330808         1.147196        -1.031426
 C         1.468104         0.469474        -0.037209
 C         2.277932        -0.859620        -0.346587
 O         2.423794        -1.768750         0.749941
 C         2.451326        -0.803482         1.814413
 C         2.497711         0.525889         1.114545
 O         2.630883         1.772661         1.792443
 H         5.032843        -0.151148        -1.321455
 H         5.212454         1.315900        -0.213987
 H         5.198353        -0.352689         0.452750
 H         2.195117         2.245654        -0.949773
 H         2.220765         0.732625        -2.032900
 H         0.352668         0.524736         0.058715
 H         1.995125        -1.427938        -1.226975
 H         1.488086        -0.928658         2.380270
 H         3.320253        -0.858112         2.508235
 H         2.582304         2.406525         1.090418
