19
Iteration:  4109charge 0 multiplicity 1
 C         4.800460         0.326778        -0.286672
 C         3.298205         0.294864        -0.202196
 C         2.411723         1.315009        -0.982245
 C         1.316888         0.306044        -0.100242
 C         2.325879        -0.837017        -0.331949
 O         2.247223        -1.804514         0.755806
 C         2.555161        -0.776482         1.885486
 C         2.447764         0.468376         1.056074
 O         2.712708         1.783433         1.723368
 H         5.181862        -0.448691        -1.006797
 H         5.124806         1.280551        -0.761776
 H         5.229906         0.050724         0.654779
 H         2.085971         2.297104        -0.741806
 H         2.395399         1.012829        -2.029521
 H         0.271978         0.443828        -0.165673
 H         2.167852        -1.388937        -1.304166
 H         1.808484        -0.846419         2.655153
 H         3.468004        -1.269703         2.201432
 H         2.139240         2.372222         1.346459
