19
Iteration:  4756charge 0 multiplicity 1
 C         4.847904         0.253373        -0.412027
 C         3.292107         0.330584        -0.273085
 C         2.248754         1.172167        -0.968948
 C         1.285772         0.277999        -0.237454
 C         2.281040        -0.873454        -0.350804
 O         2.357190        -1.664665         0.863771
 C         2.663415        -0.711114         1.890130
 C         2.433273         0.502719         1.082659
 O         2.589393         1.738893         1.837819
 H         5.326892         0.805047        -1.211335
 H         5.372258         0.542866         0.592466
 H         5.116600        -0.868177        -0.495544
 H         2.277347         2.292555        -0.755428
 H         2.261291         1.219065        -2.034265
 H         0.132611         0.303339        -0.223639
 H         2.201250        -1.613476        -1.185040
 H         1.986275        -0.802492         2.723257
 H         3.727608        -0.718546         2.223097
 H         2.920296         2.561818         1.351599
