19
Iteration:  2487
 C         4.827731         0.137558        -0.443032
 C         3.309196         0.172284        -0.319408
 C         2.281776         0.957014        -1.209582
 C         1.438160         0.281571        -0.119521
 C         2.363954        -1.023902        -0.211314
 O         2.404163        -1.565140         1.128886
 C         2.544633        -0.450194         2.006288
 C         2.438420         0.663617         0.923239
 O         2.485286         1.836388         1.687135
 H         5.285281         0.748814        -1.284539
 H         5.368058         0.476295         0.465368
 H         4.933444        -0.909763        -0.820808
 H         2.315358         2.045153        -1.200999
 H         2.262513         0.347811        -2.120844
 H         0.282311         0.300434         0.041351
 H         2.125580        -1.734897        -0.963436
 H         1.683576        -0.361370         2.682356
 H         3.545465        -0.423078         2.514516
 H         2.621210         2.659148         1.092707
