19
Iteration:  4826charge 0 multiplicity 1
 C         4.755714         0.386233        -0.424756
 C         3.298771         0.345475        -0.337494
 C         2.234718         1.095870        -1.157669
 C         1.364747         0.367663        -0.083239
 C         2.332053        -0.900367        -0.301598
 O         2.399103        -1.770887         0.898528
 C         2.469969        -0.707628         1.879654
 C         2.489351         0.621653         1.023974
 O         2.679968         1.635441         1.934183
 H         5.329064         1.002765        -1.171209
 H         5.281070         0.632347         0.460994
 H         5.138321        -0.589317        -0.613415
 H         2.229564         2.174076        -1.145144
 H         2.125777         0.884974        -2.253269
 H         0.308417         0.283876         0.020373
 H         2.265646        -1.483595        -1.212129
 H         1.539187        -0.609779         2.436341
 H         3.331393        -0.815867         2.550740
 H         2.945293         2.512792         1.398694
