19
Iteration:   669
 C         4.830513         0.200863        -0.422445
 C         3.313483         0.160658        -0.241806
 C         2.283605         0.875017        -1.190542
 C         1.375006         0.190782        -0.123283
 C         2.346333        -1.013789        -0.090267
 O         2.359227        -1.644665         1.166437
 C         2.553698        -0.435497         2.012193
 C         2.471675         0.700950         0.962701
 O         2.508421         1.947968         1.467439
 H         5.487294         0.004945         0.485539
 H         5.033365        -0.563107        -1.233922
 H         5.233145         1.146419        -0.834550
 H         2.343603         2.084517        -1.251534
 H         2.195797         0.577714        -2.215513
 H         0.326375         0.167161         0.044402
 H         2.354256        -1.749662        -0.986156
 H         1.770701        -0.207979         2.742771
 H         3.550310        -0.584843         2.447871
 H         2.826231         2.467189         0.762922
