19
Iteration:  4169charge 0 multiplicity 1
 C         4.739281         0.201760        -0.388170
 C         3.332662         0.311618        -0.177836
 C         2.364595         1.167494        -1.130692
 C         1.421078         0.431416        -0.138155
 C         2.324738        -0.876011        -0.357059
 O         2.447027        -1.715958         0.786494
 C         2.474050        -0.712815         1.835103
 C         2.366224         0.619894         1.094169
 O         2.600371         1.688480         1.982252
 H         4.770400         0.143736        -1.480173
 H         5.410223         0.923075         0.018031
 H         5.142483        -0.757502         0.007074
 H         2.303708         2.239609        -1.404808
 H         2.237549         0.671526        -2.090590
 H         0.301324         0.433278        -0.263545
 H         2.101572        -1.397699        -1.273402
 H         1.636639        -0.839239         2.573483
 H         3.434348        -0.774084         2.386562
 H         2.737074         2.416752         1.364467
