19
Iteration:   318
 C         4.829474         0.168165        -0.405967
 C         3.354424         0.171681        -0.259607
 C         2.273046         0.793798        -1.216123
 C         1.397895         0.185468        -0.142821
 C         2.295739        -1.047445        -0.158115
 O         2.446917        -1.603908         1.209938
 C         2.410912        -0.383089         2.041536
 C         2.411882         0.645745         0.966149
 O         2.691590         2.013399         1.444285
 H         5.292741        -0.503268         0.303051
 H         5.075361        -0.052201        -1.417111
 H         5.192261         1.235464        -0.159345
 H         2.255557         1.876057        -1.153814
 H         2.058600         0.465414        -2.240174
 H         0.305625         0.288083         0.000164
 H         2.162471        -1.905334        -0.914591
 H         1.492622        -0.217605         2.639641
 H         3.310571        -0.337815         2.722331
 H         2.070234         2.531800         0.829860
