19
Iteration:   831charge 0 multiplicity 1
 C         4.773737         0.149888        -0.369221
 C         3.304335         0.205711        -0.310924
 C         2.149413         0.799975        -1.261926
 C         1.396160         0.243944        -0.130665
 C         2.373714        -1.041931        -0.135041
 O         2.496425        -1.556164         1.180647
 C         2.422038        -0.432742         1.979695
 C         2.459513         0.675987         0.953200
 O         2.677715         1.958994         1.534648
 H         5.195683        -0.546421         0.403938
 H         5.168597         0.010001        -1.343707
 H         5.015335         1.147708         0.054254
 H         2.336811         1.885450        -1.366497
 H         1.850408         0.408312        -2.266798
 H         0.358206         0.193489         0.130744
 H         2.364226        -1.983026        -0.837825
 H         1.489648        -0.726344         2.476920
 H         3.315373        -0.356361         2.701689
 H         2.681753         2.660979         0.878717
