19
Iteration:   102
 C         4.797032         0.096955        -0.376148
 C         3.322058         0.071095        -0.276121
 C         2.226829         0.837869        -1.112710
 C         1.340377         0.229345        -0.037935
 C         2.350490        -0.966418        -0.164199
 O         2.530100        -1.543347         1.143200
 C         2.448355        -0.383522         1.999586
 C         2.442568         0.675354         0.940563
 O         2.573616         2.001538         1.294175
 H         5.408730        -0.570126         0.424485
 H         5.379989        -0.158354        -1.246565
 H         4.992520         1.103167        -0.150003
 H         2.089602         1.839644        -1.251523
 H         1.983558         0.296623        -2.129369
 H         0.266122         0.300955         0.182321
 H         2.219693        -1.800254        -0.895553
 H         1.518607        -0.356850         2.606134
 H         3.323212        -0.422381         2.679452
 H         3.130376         2.061066         2.069369
