19
Iteration:  2790charge 0 multiplicity 1
 C         4.877349         0.240185        -0.521923
 C         3.337276         0.207304        -0.279102
 C         2.284410         1.107595        -1.031360
 C         1.410787         0.279707        -0.060310
 C         2.268928        -0.954416        -0.232932
 O         2.344228        -1.641037         1.039194
 C         2.492039        -0.609862         1.981821
 C         2.506196         0.600322         1.060769
 O         2.517677         1.848257         1.494235
 H         5.377296         0.393020         0.444972
 H         5.127214        -0.685763        -1.057198
 H         5.147299         1.132155        -1.087327
 H         2.279384         2.289377        -0.936350
 H         2.114557         0.737688        -2.043395
 H         0.295532         0.047076        -0.038941
 H         2.269382        -1.896319        -1.080330
 H         1.702331        -0.706263         2.771992
 H         3.492294        -0.779176         2.499241
 H         3.375079         2.049610         1.959555
