19
Iteration:  2060charge 0 multiplicity 1
 C         4.832535         0.205664        -0.351686
 C         3.291433         0.202646        -0.312107
 C         2.226905         0.778438        -1.341882
 C         1.280267         0.265753        -0.153367
 C         2.315484        -1.030871        -0.154865
 O         2.455108        -1.599227         1.114851
 C         2.516918        -0.449925         2.035589
 C         2.402927         0.719206         1.040725
 O         2.699272         1.951364         1.609584
 H         5.306627         0.011609         0.614646
 H         5.108714        -0.660130        -1.001957
 H         5.289911         1.053928        -0.801909
 H         2.024936         1.889848        -1.434680
 H         2.266521         0.256637        -2.268855
 H         0.129756         0.227082        -0.229144
 H         2.315131        -1.915086        -0.846463
 H         1.621485        -0.566318         2.695032
 H         3.391808        -0.477569         2.681018
 H         2.783066         2.605069         0.834318
