19
Iteration:  4879charge 0 multiplicity 1
 C         4.778521         0.183711        -0.381224
 C         3.345979         0.323417        -0.335301
 C         2.249197         1.260607        -0.978650
 C         1.462210         0.411063         0.052889
 C         2.291372        -0.960929        -0.341322
 O         2.391150        -1.720674         0.783309
 C         2.608627        -0.766965         1.876982
 C         2.576324         0.533029         1.042707
 O         2.455679         1.791680         1.734455
 H         5.416235         0.413142        -1.320471
 H         5.308550         0.935343         0.293410
 H         4.967570        -0.853526        -0.165894
 H         2.354854         2.335062        -0.796469
 H         1.976301         1.022276        -2.008306
 H         0.481579         0.524661         0.569638
 H         2.040672        -1.562500        -1.192022
 H         1.890727        -0.936352         2.627848
 H         3.661429        -0.887558         2.205801
 H         1.710172         2.405352         1.239503
