19
Iteration:  3627charge 0 multiplicity 1
 C         4.872065         0.232341        -0.313970
 C         3.265031         0.264922        -0.343694
 C         2.313152         1.112288        -1.108672
 C         1.388751         0.469646        -0.131052
 C         2.212889        -0.867945        -0.292430
 O         2.351166        -1.731789         0.820084
 C         2.594895        -0.627925         1.861429
 C         2.460379         0.592868         1.060698
 O         2.650198         1.628534         1.864479
 H         5.086373         0.626082        -1.341127
 H         5.034589         0.905946         0.523255
 H         5.304468        -0.766540        -0.003127
 H         2.486918         2.274690        -0.921347
 H         2.086818         0.937727        -2.185731
 H         0.286063         0.520346        -0.159742
 H         2.053973        -1.578701        -1.168599
 H         1.788881        -0.737527         2.593233
 H         3.555727        -0.658912         2.417248
 H         2.114902         2.347886         1.479504
