19
Iteration:  4947charge 0 multiplicity 1
 C         4.812536         0.390887        -0.466586
 C         3.336630         0.313614        -0.272479
 C         2.218399         1.076104        -1.103566
 C         1.319354         0.330086        -0.128182
 C         2.228745        -0.892951        -0.323679
 O         2.429853        -1.638258         0.812229
 C         2.472931        -0.711065         1.888636
 C         2.512859         0.613464         1.060858
 O         2.651205         1.614063         1.981274
 H         5.195451        -0.272558        -1.310129
 H         5.277565         1.311808        -0.701391
 H         5.272369        -0.088317         0.414385
 H         2.278468         2.169437        -1.150726
 H         2.395304         0.677645        -2.132877
 H         0.269139         0.378175         0.027033
 H         2.302943        -1.505225        -1.245614
 H         1.597496        -0.770513         2.515314
 H         3.351526        -0.925167         2.484875
 H         3.044681         2.308722         1.524643
