19
Iteration:  2432
 C         4.798154         0.243309        -0.385293
 C         3.241154         0.209652        -0.205201
 C         2.267376         0.879828        -1.158073
 C         1.385720         0.253789        -0.105250
 C         2.282936        -0.943012        -0.122160
 O         2.426382        -1.660803         1.043987
 C         2.476630        -0.543675         2.012143
 C         2.460836         0.636086         1.013056
 O         2.669290         1.939157         1.454455
 H         5.221835         1.229750        -0.720963
 H         5.246905        -0.039462         0.561291
 H         5.259346        -0.598060        -0.926332
 H         2.339524         1.933796        -1.352484
 H         2.284920         0.403546        -2.210985
 H         0.269290         0.125486         0.110189
 H         2.378112        -1.435302        -1.031341
 H         1.587223        -0.622240         2.633390
 H         3.422848        -0.593393         2.609899
 H         2.607675         2.655110         0.738903
