19
Iteration:  3941charge 0 multiplicity 1
 C         4.690424         0.284908        -0.272098
 C         3.185987         0.312226        -0.199222
 C         2.385686         1.138135        -1.207387
 C         1.378797         0.371315        -0.107259
 C         2.240879        -0.884926        -0.292698
 O         2.431440        -1.709244         0.784962
 C         2.536975        -0.745519         1.846941
 C         2.352984         0.615625         1.032124
 O         2.781492         1.672582         1.862749
 H         5.174865         0.915674        -1.059235
 H         5.051624         0.763891         0.648118
 H         5.163446        -0.728147        -0.459147
 H         2.491359         2.202239        -1.300802
 H         2.592050         0.806086        -2.299911
 H         0.273098         0.602473         0.005882
 H         2.065381        -1.486397        -1.193957
 H         1.740595        -1.014927         2.571643
 H         3.513433        -0.752399         2.339337
 H         2.371568         2.511536         1.755218
