19
Iteration:  4950charge 0 multiplicity 1
 C         4.839985         0.412752        -0.467289
 C         3.362248         0.324638        -0.274713
 C         2.201471         1.062760        -1.133070
 C         1.363495         0.315666        -0.106334
 C         2.205959        -0.899846        -0.317693
 O         2.410447        -1.659201         0.807995
 C         2.469911        -0.704022         1.890147
 C         2.513539         0.595971         1.053967
 O         2.640464         1.627647         1.987898
 H         5.232629        -0.220280        -1.229101
 H         5.263834         1.350145        -0.797606
 H         5.257571        -0.146397         0.411570
 H         2.223434         2.210121        -0.994105
 H         2.365288         0.665090        -2.171630
 H         0.272353         0.474225         0.063692
 H         2.180935        -1.471304        -1.297263
 H         1.531704        -0.794647         2.541954
 H         3.346476        -0.953775         2.478786
 H         3.132037         2.433250         1.500291
