19
Iteration:  1271charge 0 multiplicity 1
 C         4.837340         0.095527        -0.437806
 C         3.328322         0.105349        -0.321249
 C         2.316574         0.827125        -1.208201
 C         1.374632         0.198373        -0.199212
 C         2.334982        -0.963764        -0.108583
 O         2.390473        -1.484376         1.180089
 C         2.623861        -0.421151         2.007667
 C         2.462528         0.707327         1.009892
 O         2.416895         1.958720         1.544161
 H         5.220369        -0.883868        -0.036213
 H         5.249310         0.190445        -1.487816
 H         5.207366         0.800183         0.318537
 H         2.172169         1.881395        -1.434411
 H         2.278484         0.323842        -2.265556
 H         0.354508        -0.184576         0.166971
 H         2.193113        -1.847021        -0.806811
 H         2.079133        -0.197340         2.937812
 H         3.679959        -0.565640         2.292625
 H         2.405094         2.661379         0.796922
