19
Iteration:  2442
 C         4.746293         0.180200        -0.373989
 C         3.325430         0.243215        -0.216779
 C         2.289205         0.863257        -1.146895
 C         1.383884         0.245919         0.003848
 C         2.376843        -0.963754        -0.203978
 O         2.437571        -1.674361         1.048101
 C         2.418113        -0.573356         1.964644
 C         2.423020         0.676268         1.044448
 O         2.676142         1.998549         1.455163
 H         5.007092         1.153997        -0.886236
 H         5.212013         0.318978         0.603444
 H         4.998948        -0.599847        -1.089837
 H         2.372505         1.943855        -1.044717
 H         2.099419         0.552567        -2.141388
 H         0.252879         0.228162        -0.054803
 H         2.317191        -1.716400        -0.993507
 H         1.506934        -0.569527         2.569939
 H         3.343730        -0.561280         2.627475
 H         2.625030         2.346543         0.481577
