19
Iteration:  2919charge 0 multiplicity 1
 C         4.850575         0.270155        -0.450092
 C         3.312711         0.177659        -0.367056
 C         2.275532         1.060491        -1.108377
 C         1.404376         0.290746        -0.012854
 C         2.255915        -0.995682        -0.206378
 O         2.363291        -1.762135         0.974102
 C         2.476623        -0.564521         1.892065
 C         2.538970         0.617851         0.986725
 O         2.532753         1.915975         1.714247
 H         5.074944         1.145403        -1.122312
 H         5.470015         0.599842         0.449538
 H         5.317797        -0.680092        -0.842858
 H         2.417797         2.198897        -0.855533
 H         2.207288         0.708805        -2.120888
 H         0.285384         0.458736         0.098011
 H         2.141193        -1.690231        -1.051643
 H         1.572230        -0.714023         2.457404
 H         3.445880        -0.709393         2.385648
 H         3.448103         2.279234         1.755552
