19
Iteration:  2398
 C         4.791189         0.213770        -0.360262
 C         3.346862         0.079289        -0.394303
 C         2.272431         0.901695        -1.250467
 C         1.393736         0.239568        -0.133663
 C         2.301474        -1.014817        -0.117593
 O         2.317886        -1.610184         1.156020
 C         2.624092        -0.387801         1.926929
 C         2.478202         0.728490         0.876555
 O         2.549683         1.841100         1.670666
 H         5.173985         1.172499         0.072669
 H         5.004140        -0.508148         0.456788
 H         5.346350         0.047306        -1.266947
 H         2.390392         2.011582        -1.260646
 H         2.110070         0.476551        -2.313018
 H         0.319311         0.192031         0.109717
 H         2.214106        -1.737340        -0.928347
 H         1.985246        -0.351021         2.799614
 H         3.690760        -0.528728         2.319485
 H         2.486685         2.748933         1.194109
