19
Iteration:  2866
 C         4.766810         0.112915        -0.368525
 C         3.302489         0.260998        -0.315131
 C         2.252672         1.045766        -1.064353
 C         1.423058         0.315716        -0.060877
 C         2.345772        -0.931607        -0.267657
 O         2.419115        -1.731217         1.009832
 C         2.641911        -0.576998         1.872303
 C         2.448886         0.608890         0.976558
 O         2.459097         1.949413         1.611491
 H         5.393471         0.996881        -0.102917
 H         5.033520        -0.865167         0.133226
 H         4.962814        -0.030287        -1.464811
 H         2.269372         2.198894        -0.847538
 H         2.069626         1.018750        -2.128211
 H         0.324986         0.518040         0.058859
 H         2.003517        -1.704522        -1.075139
 H         1.843403        -0.526836         2.668256
 H         3.627520        -0.777811         2.448084
 H         3.338315         1.998131         2.070827
