19
Iteration:  3289
 C         4.729706         0.251713        -0.433743
 C         3.237433         0.347235        -0.254011
 C         2.236189         1.093826        -1.137600
 C         1.318716         0.261842        -0.242435
 C         2.294007        -0.867750        -0.319897
 O         2.361128        -1.687698         0.831055
 C         2.631100        -0.654175         1.862935
 C         2.428653         0.655401         1.083428
 O         2.725927         1.690835         1.998527
 H         5.124027         0.956705        -1.229233
 H         5.207010         0.698992         0.517742
 H         5.043480        -0.835146        -0.566909
 H         2.049375         2.196473        -0.957731
 H         2.294638         0.781470        -2.154962
 H         0.223912         0.015970         0.090622
 H         2.395170        -1.523982        -1.174321
 H         1.850170        -0.730661         2.649989
 H         3.695548        -0.579894         2.290240
 H         3.312071         2.252104         1.535185
