19
Iteration:  2170
 C         4.893783         0.030982        -0.450625
 C         3.336565         0.203366        -0.313074
 C         2.251445         0.862452        -1.227105
 C         1.352034         0.217074        -0.129125
 C         2.332988        -1.065872        -0.117089
 O         2.463724        -1.554880         1.193822
 C         2.515627        -0.356649         1.956432
 C         2.457859         0.728586         0.905377
 O         2.466001         1.913954         1.615668
 H         5.138348        -1.061890        -0.281168
 H         5.222928         0.376700        -1.483742
 H         5.417407         0.645688         0.303203
 H         2.486757         1.914354        -1.419307
 H         2.103975         0.437420        -2.197823
 H         0.189068         0.357434         0.040527
 H         2.264134        -1.809868        -0.884718
 H         1.723909        -0.250956         2.804737
 H         3.472844        -0.192569         2.452828
 H         2.521586         2.744355         1.197215
