19
Iteration:  4200charge 0 multiplicity 1
 C         4.855154         0.148377        -0.441779
 C         3.372843         0.335155        -0.258519
 C         2.303913         1.277774        -1.014344
 C         1.441575         0.334423        -0.133277
 C         2.320638        -0.917986        -0.349435
 O         2.392935        -1.688416         0.863998
 C         2.452406        -0.729417         1.843890
 C         2.496988         0.591377         1.080710
 O         2.482225         1.724030         1.864839
 H         5.121376         0.565197        -1.398447
 H         5.615817         0.687503         0.198385
 H         4.825939        -0.969842        -0.556766
 H         2.271362         2.368635        -0.758917
 H         2.090247         1.079577        -2.046450
 H         0.325284         0.283594        -0.131950
 H         2.091542        -1.563722        -1.140478
 H         1.511181        -0.632061         2.453753
 H         3.300931        -0.966050         2.545788
 H         3.023503         2.440306         1.426207
