19
Iteration:  4075
 C         4.864730         0.248493        -0.348612
 C         3.309480         0.268123        -0.362525
 C         2.339443         1.165766        -1.074724
 C         1.351462         0.477827        -0.033985
 C         2.324379        -0.883212        -0.312734
 O         2.376257        -1.721983         0.753127
 C         2.480145        -0.725930         1.839958
 C         2.458355         0.571457         1.026342
 O         2.618323         1.648472         1.934346
 H         5.270250        -0.615328        -0.958561
 H         5.246715         1.216220        -0.654979
 H         5.225382         0.202610         0.652440
 H         2.227386         2.207948        -1.101508
 H         2.155569         0.877103        -2.131191
 H         0.298857         0.576008         0.091513
 H         2.125672        -1.456648        -1.284785
 H         1.592795        -0.616828         2.450522
 H         3.385131        -0.776782         2.449791
 H         2.130394         2.424086         1.657319
