19
Iteration:  1635charge 0 multiplicity 1
 C         4.876960         0.109456        -0.387680
 C         3.344831         0.175723        -0.341967
 C         2.343530         0.819033        -1.219164
 C         1.400974         0.270224        -0.111791
 C         2.244014        -1.066298        -0.043183
 O         2.373226        -1.611246         1.167142
 C         2.636232        -0.333984         1.899350
 C         2.471433         0.715381         0.935534
 O         2.415961         1.940916         1.608687
 H         5.247751        -0.481099         0.410751
 H         5.234007        -0.288053        -1.337885
 H         5.313721         1.126128        -0.361603
 H         2.528558         1.892137        -1.329469
 H         2.205510         0.336069        -2.406934
 H         0.194715         0.293089         0.081640
 H         2.198313        -1.683950        -1.006695
 H         1.803528        -0.501853         2.623511
 H         3.677444        -0.446948         2.306779
 H         2.251070         2.552569         0.819166
