19
Iteration:  4240
 C         4.834057         0.247839        -0.356776
 C         3.326102         0.284343        -0.198000
 C         2.321414         1.163646        -1.003323
 C         1.440242         0.376256        -0.057516
 C         2.235462        -0.897811        -0.375572
 O         2.329278        -1.712919         0.796705
 C         2.531989        -0.783840         1.877852
 C         2.430137         0.550342         1.103692
 O         2.594135         1.800561         1.759090
 H         5.072329         0.913605        -1.251615
 H         5.345662         0.776735         0.547484
 H         5.440516        -0.649996        -0.490105
 H         2.402501         2.261756        -0.878469
 H         2.324167         0.943072        -2.125582
 H         0.381324         0.455992        -0.197614
 H         1.808348        -1.506561        -1.304956
 H         1.809476        -0.983622         2.660430
 H         3.554134        -0.926337         2.277442
 H         2.751745         2.361440         0.965604
