19
Iteration:  2817charge 0 multiplicity 1
 C         4.774463         0.115479        -0.460755
 C         3.253002         0.235447        -0.232609
 C         2.223972         1.000378        -1.191404
 C         1.359490         0.369490        -0.079825
 C         2.356138        -0.973148        -0.227486
 O         2.521390        -1.732594         0.961296
 C         2.464732        -0.555987         1.886279
 C         2.443565         0.691626         1.030292
 O         2.583020         1.961192         1.706997
 H         5.309838         0.498050         0.423806
 H         5.021528        -0.931942        -0.643551
 H         5.197637         0.752132        -1.262554
 H         2.300308         2.010242        -1.379318
 H         2.052110         0.527161        -2.181784
 H         0.309889         0.321515         0.127446
 H         2.453933        -1.612390        -0.990611
 H         1.676728        -0.700608         2.608154
 H         3.361618        -0.627655         2.451131
 H         3.241583         1.857196         2.432239
