19
Iteration:    76charge 0 multiplicity 1
 C         4.785901         0.089509        -0.427771
 C         3.311002         0.258567        -0.345149
 C         2.265018         0.829292        -1.272269
 C         1.306256         0.190312        -0.170021
 C         2.342045        -0.975026        -0.047498
 O         2.516020        -1.638174         1.224229
 C         2.431133        -0.485437         2.074528
 C         2.518554         0.723181         0.933056
 O         2.532153         2.044008         1.456570
 H         5.033274        -0.465460         0.382729
 H         5.127248        -0.512057        -1.279820
 H         5.405852         1.026399        -0.490969
 H         2.267364         1.993769        -1.357186
 H         2.119565         0.416415        -2.178922
 H         0.231652         0.132500         0.006285
 H         2.297878        -1.767641        -0.782610
 H         1.481797        -0.323396         2.614698
 H         3.359364        -0.484806         2.592460
 H         3.486370         2.278079         1.636903
