19
Iteration:   974
 C         4.789769         0.135612        -0.355766
 C         3.258286         0.210976        -0.383190
 C         2.248952         0.859352        -1.295631
 C         1.393438         0.211252        -0.055574
 C         2.380775        -1.018050        -0.116987
 O         2.470311        -1.569372         1.198537
 C         2.475613        -0.400557         1.996457
 C         2.473580         0.665663         0.931504
 O         2.607766         1.918216         1.531835
 H         5.239972        -0.656010         0.281140
 H         5.016682         0.010118        -1.385104
 H         5.178251         1.046012         0.006958
 H         2.256282         1.950368        -1.373000
 H         2.193915         0.333783        -2.271015
 H         0.347428         0.080655         0.153319
 H         2.115997        -1.753910        -0.875348
 H         1.540631        -0.464541         2.568734
 H         3.324727        -0.326349         2.719034
 H         2.400860         2.574914         0.818692
