19
Iteration:  3263
 C         4.794833         0.360975        -0.445573
 C         3.275929         0.340859        -0.235901
 C         2.246547         1.083763        -1.123376
 C         1.375938         0.346219        -0.133928
 C         2.287290        -0.861570        -0.310867
 O         2.257836        -1.732162         0.881534
 C         2.617767        -0.744616         1.877080
 C         2.509417         0.590432         1.119251
 O         2.678222         1.695535         1.870865
 H         5.079749         1.294572        -0.995712
 H         5.366203         0.377337         0.511714
 H         5.082761        -0.568842        -1.087969
 H         2.163132         2.158018        -1.131758
 H         2.157233         0.646431        -2.182844
 H         0.264524         0.282989        -0.057056
 H         2.305359        -1.524062        -1.209902
 H         1.898435        -0.784958         2.718914
 H         3.708992        -0.711960         2.184873
 H         2.802294         2.360416         1.235207
