19
Iteration:  2495charge 0 multiplicity 1
 C         4.798108         0.107263        -0.480034
 C         3.340734         0.190143        -0.257646
 C         2.261448         0.893648        -1.253986
 C         1.438647         0.301533        -0.151811
 C         2.318750        -1.004814        -0.169244
 O         2.375818        -1.618569         1.070758
 C         2.580180        -0.430559         1.969425
 C         2.455123         0.684647         0.980748
 O         2.478942         1.897586         1.741018
 H         5.106532         0.791719        -1.286837
 H         5.221941         0.404638         0.546395
 H         5.190834        -0.926132        -0.623075
 H         2.497639         2.000009        -1.436905
 H         2.252323         0.505729        -2.217768
 H         0.355436         0.229682        -0.016245
 H         2.516681        -1.829149        -0.985871
 H         1.898314        -0.515834         2.842328
 H         3.611985        -0.354780         2.472926
 H         2.451394         2.672712         1.049647
