19
Iteration:  2971charge 0 multiplicity 1
 C         4.767986         0.216459        -0.418825
 C         3.265701         0.278340        -0.211278
 C         2.221409         0.982119        -1.121952
 C         1.403192         0.328795        -0.078087
 C         2.278335        -0.962500        -0.296208
 O         2.455502        -1.717674         0.922324
 C         2.509625        -0.624359         1.888587
 C         2.447767         0.634643         1.059567
 O         2.654099         1.946575         1.648625
 H         5.135202         0.027852        -1.435781
 H         5.247414         1.100056         0.037879
 H         5.307149        -0.592375         0.198164
 H         2.379827         2.139376        -1.041067
 H         2.075204         0.768135        -2.232245
 H         0.251204         0.324694        -0.085286
 H         2.231290        -1.544634        -1.161977
 H         1.650165        -0.856360         2.649078
 H         3.414070        -0.759891         2.512474
 H         2.928978         1.836967         2.529308
