19
Iteration:  4625
 C         4.780172         0.418809        -0.311868
 C         3.283397         0.276158        -0.243267
 C         2.327642         1.060126        -1.170190
 C         1.406247         0.448994         0.008217
 C         2.212816        -0.873230        -0.398877
 O         2.322791        -1.746953         0.796391
 C         2.537430        -0.860439         1.839471
 C         2.548905         0.598354         1.034839
 O         2.629904         1.782495         1.832324
 H         5.247236        -0.155659        -1.089712
 H         4.947847         1.474555        -0.728223
 H         5.319211         0.185612         0.659415
 H         2.453313         2.237502        -1.251771
 H         2.308014         0.671169        -2.222049
 H         0.271606         0.332806         0.116094
 H         1.879306        -1.418818        -1.302959
 H         1.774807        -0.913540         2.676322
 H         3.568587        -1.100462         2.285381
 H         2.927061         1.634720         2.667543
