19
Iteration:    28
 C         4.855962         0.103219        -0.485275
 C         3.330724         0.165713        -0.295770
 C         2.308365         0.847047        -1.219118
 C         1.411135         0.244262        -0.106719
 C         2.300442        -1.015125        -0.097709
 O         2.294524        -1.613893         1.239387
 C         2.628219        -0.418105         2.033667
 C         2.501907         0.677633         0.974479
 O         2.483686         1.993677         1.459567
 H         5.333106        -0.322798         0.495920
 H         5.323889        -0.406400        -1.360975
 H         5.263305         1.150520        -0.580939
 H         2.375243         1.971258        -1.144148
 H         2.368276         0.416735        -2.313865
 H         0.308324         0.343599        -0.041121
 H         2.239117        -1.793886        -0.891173
 H         1.706125        -0.341016         2.655199
 H         3.726695        -0.574213         2.402127
 H         1.960985         2.570399         0.935139
