19
Iteration:  4191charge 0 multiplicity 1
 C         4.840990         0.170648        -0.483542
 C         3.345527         0.321991        -0.234646
 C         2.334226         1.187636        -1.032089
 C         1.361742         0.329418        -0.165734
 C         2.334214        -0.845909        -0.318198
 O         2.402695        -1.634335         0.821437
 C         2.459234        -0.717691         1.888434
 C         2.416382         0.572706         1.028307
 O         2.530168         1.725786         1.942912
 H         5.077080         0.338724        -1.496142
 H         5.548010         0.455199         0.236247
 H         5.048946        -0.937441        -0.356509
 H         2.360353         2.274819        -0.826898
 H         2.261886         1.095680        -2.105225
 H         0.246034         0.207022        -0.152707
 H         2.527157        -1.437784        -1.193681
 H         1.539034        -0.933167         2.496139
 H         3.367675        -0.774102         2.532037
 H         3.086815         2.366939         1.426957
