19
Iteration:  3035charge 0 multiplicity 1
 C         4.839360         0.147621        -0.453600
 C         3.272378         0.274804        -0.259198
 C         2.261311         1.041045        -1.169470
 C         1.360396         0.254649        -0.078250
 C         2.296549        -0.859264        -0.309379
 O         2.381242        -1.627196         0.898103
 C         2.623404        -0.715048         1.930713
 C         2.413035         0.637970         1.146079
 O         2.626457         1.886459         1.736003
 H         5.115199        -0.832869        -0.785929
 H         5.231774         0.848969        -1.146601
 H         5.215861         0.378933         0.563135
 H         2.494241         2.144434        -1.128093
 H         2.199370         0.749174        -2.243308
 H         0.212795         0.143942        -0.068495
 H         2.311225        -1.428314        -1.190824
 H         1.917048        -0.927182         2.778297
 H         3.665468        -0.643910         2.274411
 H         1.820503         2.383345         2.093107
