19
Iteration:  2075
 C         4.776699         0.176974        -0.353804
 C         3.247287         0.230809        -0.244181
 C         2.227389         0.837784        -1.209746
 C         1.385153         0.161690        -0.166666
 C         2.280983        -1.017597        -0.142152
 O         2.524375        -1.608699         1.172062
 C         2.423421        -0.416282         1.936187
 C         2.364647         0.666715         0.875700
 O         2.771279         1.931160         1.587565
 H         5.105121         0.012014         0.669344
 H         5.189250        -0.493569        -1.030243
 H         5.131257         1.193565        -0.648153
 H         2.326812         1.897638        -1.515443
 H         2.067346         0.376300        -2.191583
 H         0.315462         0.128961         0.038443
 H         2.091222        -1.648563        -0.933419
 H         1.592630        -0.421812         2.642009
 H         3.376661        -0.259711         2.446824
 H         2.716860         2.716851         1.004813
