19
Iteration:  3497charge 0 multiplicity 1
 C         4.799482         0.227138        -0.341868
 C         3.319124         0.291383        -0.211734
 C         2.316159         1.077540        -1.171153
 C         1.392268         0.375565        -0.046328
 C         2.246235        -0.874221        -0.345790
 O         2.349705        -1.699872         0.704610
 C         2.541101        -0.781329         1.885941
 C         2.476003         0.623126         1.085160
 O         2.588004         1.871586         1.836965
 H         5.116158         0.266198        -1.416279
 H         5.335846         1.108163         0.051697
 H         5.174855        -0.726601         0.056198
 H         2.300234         2.188658        -1.213015
 H         2.197752         0.543537        -2.052031
 H         0.366839         0.577971         0.278219
 H         2.370909        -1.454605        -1.291136
 H         1.759227        -0.904068         2.630957
 H         3.578364        -0.844518         2.292628
 H         2.809016         1.575599         2.713221
