19
Iteration:  1584
 C         4.817677         0.122285        -0.365513
 C         3.336435         0.173668        -0.274356
 C         2.258264         0.893789        -1.166087
 C         1.387523         0.178709        -0.087064
 C         2.325315        -1.036870        -0.169103
 O         2.533282        -1.605620         1.186223
 C         2.410995        -0.408248         1.970944
 C         2.436456         0.681145         0.925127
 O         2.588446         1.972517         1.462647
 H         5.396929        -0.169460         0.554631
 H         5.003707        -0.617645        -1.171513
 H         5.267973         1.051713        -0.810190
 H         2.226911         2.026430        -1.104055
 H         2.227115         0.585783        -2.146933
 H         0.332988         0.288209         0.216147
 H         2.124081        -1.695587        -1.053679
 H         1.455056        -0.406438         2.512075
 H         3.252148        -0.486681         2.680136
 H         2.203897         2.644418         0.912383
