19
Iteration:  3828
 C         4.896575         0.178456        -0.359141
 C         3.362560         0.342198        -0.331819
 C         2.245100         1.194623        -1.159541
 C         1.430381         0.358317        -0.025787
 C         2.257567        -0.848973        -0.314914
 O         2.384668        -1.670505         0.779357
 C         2.407528        -0.683777         1.809108
 C         2.495229         0.568435         1.079046
 O         2.616676         1.655599         1.968901
 H         5.167516        -0.574426        -1.075130
 H         5.323125         1.121409        -0.807226
 H         5.201521        -0.175571         0.633690
 H         2.486015         2.299440        -1.287238
 H         2.033241         0.749132        -2.165190
 H         0.324295         0.205145         0.092238
 H         2.301997        -1.421928        -1.216050
 H         1.596497        -0.785986         2.515898
 H         3.299555        -0.670785         2.417008
 H         2.210895         2.519525         1.535808
