19
Iteration:  2564charge 0 multiplicity 1
 C         4.859882         0.185532        -0.362676
 C         3.238941         0.206902        -0.323713
 C         2.273030         1.070238        -1.100423
 C         1.397842         0.183274        -0.120073
 C         2.239898        -1.082118        -0.211321
 O         2.483894        -1.651813         1.051493
 C         2.444847        -0.487701         1.985119
 C         2.454468         0.630049         1.017694
 O         2.662882         1.915160         1.511296
 H         5.375921         0.435243        -1.366203
 H         5.078829         0.935616         0.438019
 H         5.147952        -0.859016         0.057831
 H         2.348001         2.194181        -0.944816
 H         1.981906         1.011118        -2.173871
 H         0.255515         0.309205         0.130330
 H         2.159936        -1.807335        -0.955347
 H         1.716662        -0.573550         2.803167
 H         3.416914        -0.486212         2.603392
 H         2.371298         2.493321         0.759232
