19
Iteration:  3252charge 0 multiplicity 1
 C         4.835382         0.376743        -0.469828
 C         3.349240         0.274989        -0.277852
 C         2.263803         1.112670        -1.074281
 C         1.391197         0.366712        -0.002945
 C         2.221189        -0.906731        -0.276557
 O         2.294084        -1.732625         0.850427
 C         2.599139        -0.707480         1.900119
 C         2.478571         0.530058         0.998015
 O         2.635840         1.731552         1.811506
 H         5.116201         1.410145        -0.840222
 H         5.242427         0.216960         0.554446
 H         5.412307        -0.389810        -1.154302
 H         2.327178         2.189306        -1.008890
 H         2.181030         0.829282        -2.190495
 H         0.313516         0.341625         0.265772
 H         2.020234        -1.493425        -1.219282
 H         1.854916        -0.804504         2.718343
 H         3.545170        -1.097353         2.387257
 H         2.546051         2.586764         1.313201
