19
Iteration:  1792
 C         4.813200         0.094685        -0.449411
 C         3.356427         0.083392        -0.305590
 C         2.267746         0.951381        -1.150965
 C         1.413825         0.283401        -0.083252
 C         2.327784        -1.015073        -0.130074
 O         2.473657        -1.603147         1.166268
 C         2.513953        -0.447754         1.982440
 C         2.521056         0.638688         0.952043
 O         2.405203         1.972610         1.505465
 H         5.072809        -0.102932         0.607424
 H         5.191913        -0.654474        -1.066000
 H         5.251664         1.021936        -0.734539
 H         2.575980         1.965346        -1.150813
 H         1.872653         0.628764        -2.186253
 H         0.385217         0.456800        -0.043854
 H         2.295942        -1.801920        -0.866458
 H         1.678654        -0.338982         2.637641
 H         3.509851        -0.386207         2.518731
 H         2.635593         2.579434         0.733702
