19
Iteration:  1106charge 0 multiplicity 1
 C         4.840095         0.114715        -0.519906
 C         3.351220         0.130980        -0.243654
 C         2.277769         0.889483        -1.149188
 C         1.346493         0.214264        -0.098848
 C         2.396847        -1.039535        -0.129968
 O         2.477747        -1.634237         1.176559
 C         2.457724        -0.388534         1.973287
 C         2.444022         0.729347         0.988238
 O         2.500515         1.986932         1.495745
 H         5.279733        -0.317594         0.485205
 H         5.158555        -0.649386        -1.280401
 H         5.320009         1.059594        -0.630507
 H         2.367098         2.031568        -1.166973
 H         2.066128         0.374464        -2.107334
 H         0.252675         0.398648        -0.034634
 H         2.180722        -1.749025        -0.945230
 H         1.639836        -0.454700         2.662433
 H         3.400560        -0.475755         2.513807
 H         2.416573         2.677329         0.887312
