19
Iteration:  1500charge 0 multiplicity 1
 C         4.817804         0.179827        -0.371364
 C         3.322189         0.174194        -0.319180
 C         2.266555         0.824505        -1.300716
 C         1.434943         0.257818        -0.139389
 C         2.325296        -1.041371        -0.099776
 O         2.376988        -1.638115         1.217022
 C         2.577807        -0.319794         1.992629
 C         2.437853         0.683604         0.936281
 O         2.527814         1.906932         1.564941
 H         5.158176        -0.759919         0.125104
 H         5.260958         0.191719        -1.413375
 H         5.168828         1.036820         0.157518
 H         2.199610         1.910753        -1.538210
 H         2.155545         0.202483        -2.336996
 H         0.397809         0.296024        -0.044844
 H         2.228637        -1.752443        -0.869742
 H         1.871357        -0.179131         2.883159
 H         3.559409        -0.594004         2.319759
 H         2.434048         2.586588         0.808168
