19
Iteration:  4786
 C         4.790781         0.402155        -0.421253
 C         3.304024         0.286242        -0.283651
 C         2.282873         1.125873        -0.951043
 C         1.364115         0.347394         0.018928
 C         2.359001        -0.865723        -0.311438
 O         2.387152        -1.793738         0.807009
 C         2.439504        -0.754391         1.892444
 C         2.457032         0.507077         1.054711
 O         2.664395         1.794835         1.685056
 H         5.099693         1.186490        -1.094060
 H         5.091786         0.676735         0.598824
 H         5.053115        -0.644749        -0.701542
 H         2.485233         2.192130        -0.758707
 H         2.132615         0.941661        -2.044322
 H         0.289058         0.238057         0.195274
 H         2.138035        -1.408700        -1.237854
 H         1.487042        -0.876683         2.488435
 H         3.353579        -0.917631         2.481160
 H         3.180743         2.347362         1.187627
