19
Iteration:  1289charge 0 multiplicity 1
 C         4.818600         0.076190        -0.346975
 C         3.314411         0.264226        -0.295367
 C         2.229150         0.814477        -1.300728
 C         1.417825         0.222962        -0.150086
 C         2.322685        -1.038313        -0.131340
 O         2.414070        -1.619507         1.216382
 C         2.655627        -0.344512         1.999931
 C         2.434161         0.707939         0.918282
 O         2.489177         1.943198         1.555472
 H         5.099814        -0.918939        -0.002291
 H         5.116265         0.095908        -1.369422
 H         5.385244         0.848709         0.112434
 H         2.333046         1.885074        -1.300720
 H         2.234596         0.294108        -2.302852
 H         0.199470         0.357753        -0.079644
 H         2.381122        -1.928275        -0.891752
 H         1.763251        -0.345686         2.683508
 H         3.670724        -0.291713         2.461464
 H         2.156209         2.736003         0.997083
