19
Iteration:  3958
 C         4.813233         0.300377        -0.253314
 C         3.287995         0.348091        -0.250547
 C         2.243959         1.080709        -1.155182
 C         1.335299         0.425029        -0.168160
 C         2.263467        -0.814845        -0.400418
 O         2.356441        -1.764132         0.829206
 C         2.524788        -0.719689         1.864636
 C         2.502641         0.542535         1.044279
 O         2.748636         1.717871         1.912597
 H         5.269062         0.771218        -1.130868
 H         5.226420         0.606629         0.748465
 H         5.074299        -0.754277        -0.290955
 H         2.255409         2.229054        -1.203651
 H         1.956375         0.770375        -2.133250
 H         0.251756         0.279283        -0.244755
 H         2.253887        -1.526370        -1.243616
 H         1.744756        -0.649718         2.634112
 H         3.555959        -0.942921         2.234190
 H         2.182470         2.349714         1.563186
