19
Iteration:  1573charge 0 multiplicity 1
 C         4.863290         0.110455        -0.424993
 C         3.323757         0.118412        -0.322932
 C         2.241318         0.885677        -1.125113
 C         1.398149         0.203813        -0.110365
 C         2.249959        -1.033184        -0.171297
 O         2.519479        -1.631993         1.140230
 C         2.426698        -0.391526         2.043531
 C         2.510200         0.661770         1.001914
 O         2.568821         2.014234         1.463824
 H         5.288466        -0.039738         0.625905
 H         5.465485        -0.496320        -1.131031
 H         5.026322         1.234146        -0.540321
 H         2.182997         2.023542        -1.020199
 H         2.141351         0.702163        -2.101219
 H         0.285970         0.223919        -0.186444
 H         2.253043        -1.870575        -0.935134
 H         1.442610        -0.576459         2.430577
 H         3.107662        -0.150954         2.880382
 H         2.342468         2.512050         0.601039
