19
Iteration:  2051
 C         4.814766         0.166789        -0.374798
 C         3.233863         0.214264        -0.308702
 C         2.224953         0.758096        -1.308683
 C         1.363662         0.238394        -0.126776
 C         2.353383        -0.953203        -0.131388
 O         2.417956        -1.606336         1.141637
 C         2.493433        -0.471542         2.044583
 C         2.541943         0.680180         0.988034
 O         2.601217         1.946210         1.593624
 H         5.205746         0.093358         0.631990
 H         5.166891        -0.576266        -0.995321
 H         5.150920         1.064699        -0.859165
 H         2.416564         1.917063        -1.579225
 H         2.088975         0.411596        -2.272723
 H         0.209008         0.390713        -0.201003
 H         2.301779        -1.554690        -0.983976
 H         1.704635        -0.472948         2.830329
 H         3.473485        -0.544129         2.462678
 H         2.765100         2.580654         0.799858
