19
Iteration:  2382
 C         4.837778         0.117853        -0.356458
 C         3.276997         0.223391        -0.294182
 C         2.295654         0.835180        -1.271149
 C         1.390228         0.275028        -0.117407
 C         2.298567        -1.016961        -0.204556
 O         2.336223        -1.555727         1.129744
 C         2.670126        -0.461725         1.965854
 C         2.472151         0.622593         0.982177
 O         2.498345         1.928281         1.639421
 H         5.220805         1.021823         0.125544
 H         5.414841        -0.762480        -0.051382
 H         5.141310         0.325596        -1.418070
 H         2.326502         1.934622        -1.359122
 H         2.213840         0.353339        -2.162664
 H         0.293923         0.336615        -0.089692
 H         2.130785        -1.822870        -1.000100
 H         1.976937        -0.339757         2.837712
 H         3.697199        -0.444315         2.366224
 H         2.429388         2.637018         0.976189
