19
Iteration:  2167
 C         4.888544         0.040522        -0.464783
 C         3.339667         0.203834        -0.297590
 C         2.264417         0.896307        -1.247210
 C         1.344864         0.200990        -0.141163
 C         2.355515        -1.042412        -0.097097
 O         2.436290        -1.573537         1.206936
 C         2.557837        -0.350340         1.988202
 C         2.417109         0.720377         0.897666
 O         2.464043         1.902618         1.612860
 H         5.138076        -1.023154        -0.264079
 H         5.272442         0.343034        -1.524860
 H         5.406121         0.614010         0.309006
 H         2.490733         1.872138        -1.456341
 H         2.101189         0.476362        -2.357008
 H         0.295613         0.386625         0.028204
 H         2.141415        -1.851625        -0.927430
 H         1.755607        -0.293674         2.744457
 H         3.554686        -0.269399         2.526396
 H         2.522140         2.794514         1.132122
