19
Iteration:   130charge 0 multiplicity 1
 C         4.733811         0.170997        -0.362329
 C         3.307675         0.201241        -0.261576
 C         2.306952         0.941209        -1.275981
 C         1.441502         0.232811        -0.137408
 C         2.259062        -1.103738        -0.101026
 O         2.376268        -1.718144         1.288669
 C         2.642338        -0.451692         2.025148
 C         2.469761         0.666429         0.910660
 O         2.543689         2.063848         1.275020
 H         5.180211        -0.554555         0.184020
 H         5.188210         0.003117        -1.364265
 H         5.235009         1.135603         0.042439
 H         1.915103         2.042368        -1.289026
 H         2.186335         0.522327        -2.214408
 H         0.404297         0.468280         0.083638
 H         2.050171        -1.954320        -0.714592
 H         1.864841        -0.335746         2.820124
 H         3.582021        -0.592418         2.582438
 H         2.841978         2.193546         2.245186
