19
Iteration:   760
 C         4.863469         0.186691        -0.416733
 C         3.337214         0.178562        -0.292217
 C         2.312415         0.828279        -1.211002
 C         1.411778         0.190164        -0.097633
 C         2.250522        -1.057508        -0.091028
 O         2.352637        -1.611859         1.177385
 C         2.611985        -0.395615         1.958235
 C         2.510652         0.655200         0.941511
 O         2.458525         1.995153         1.531124
 H         5.138298        -0.774911         0.008931
 H         5.153242         0.124021        -1.508635
 H         5.405115         0.940596         0.151303
 H         2.294512         1.913347        -1.364498
 H         2.329386         0.366238        -2.271406
 H         0.317591         0.450160        -0.008869
 H         2.212752        -1.734335        -0.888439
 H         1.949125        -0.297753         2.818178
 H         3.629137        -0.512714         2.275394
 H         2.114237         2.708680         0.940536
