19
Iteration:  4390
 C         4.833605         0.158625        -0.452389
 C         3.337255         0.355620        -0.210637
 C         2.351428         1.036629        -1.141478
 C         1.464752         0.482074        -0.051894
 C         2.234513        -0.822309        -0.363360
 O         2.430549        -1.698447         0.698691
 C         2.498258        -0.740787         1.909486
 C         2.429443         0.603483         1.108294
 O         2.507183         1.701281         2.006273
 H         5.249482        -0.380214        -1.395746
 H         5.279351         1.137879        -0.605285
 H         5.407446        -0.275306         0.353877
 H         2.398690         2.148810        -1.267476
 H         2.048596         0.641506        -2.164213
 H         0.387979         0.681627        -0.071985
 H         2.054922        -1.382503        -1.376201
 H         1.811563        -1.063566         2.730600
 H         3.548084        -0.707328         2.271603
 H         2.121061         2.611781         1.651517
