19
Iteration:  4011
 C         4.768253         0.192154        -0.424522
 C         3.293480         0.281712        -0.159697
 C         2.452905         1.241073        -0.982906
 C         1.370150         0.432116        -0.153406
 C         2.276083        -0.876446        -0.324417
 O         2.424669        -1.700483         0.780472
 C         2.526033        -0.817743         1.921096
 C         2.414579         0.536113         1.092601
 O         2.510927         1.777388         1.774680
 H         4.765848         0.205571        -1.563997
 H         5.263388         1.183868        -0.198688
 H         5.359701        -0.663080        -0.157128
 H         2.233613         2.267592        -0.584865
 H         2.598484         1.217531        -2.084440
 H         0.321766         0.510925        -0.024649
 H         2.331053        -1.657137        -1.143062
 H         1.733438        -1.151225         2.644390
 H         3.521455        -1.060285         2.431070
 H         2.781587         2.388374         1.151675
