19
Iteration:  4575charge 0 multiplicity 1
 C         4.803885         0.210352        -0.350406
 C         3.268993         0.341970        -0.242312
 C         2.269424         1.244852        -0.951117
 C         1.434185         0.304704        -0.097288
 C         2.297448        -0.917612        -0.401464
 O         2.401646        -1.713793         0.763727
 C         2.530074        -0.747314         1.915728
 C         2.482168         0.567062         1.058146
 O         2.542079         1.768624         1.775695
 H         5.195211        -0.112435        -1.371813
 H         5.316936         1.170691        -0.232674
 H         5.023501        -0.566277         0.374628
 H         2.335835         2.308538        -0.767033
 H         2.107478         1.159706        -2.020489
 H         0.362358         0.465905         0.046025
 H         2.215805        -1.511594        -1.378252
 H         1.621649        -0.957175         2.500670
 H         3.402618        -0.834607         2.546479
 H         3.382314         2.290601         1.468849
