19
Iteration:  1724
 C         4.854672         0.237721        -0.344829
 C         3.305558         0.157374        -0.378491
 C         2.260877         0.799198        -1.259555
 C         1.414443         0.268350        -0.114250
 C         2.178756        -1.081314        -0.127171
 O         2.483873        -1.590840         1.198682
 C         2.457225        -0.397678         1.970586
 C         2.502255         0.711205         0.944523
 O         2.605091         1.898781         1.567747
 H         5.239898        -0.600368         0.236699
 H         5.297446         0.191140        -1.324400
 H         5.322971         1.193187         0.059705
 H         2.402750         1.798635        -1.443850
 H         2.022260         0.223100        -2.288344
 H         0.276770         0.128657         0.084769
 H         2.081940        -1.763071        -0.962286
 H         1.510930        -0.393648         2.585010
 H         3.415578        -0.335058         2.574958
 H         2.426969         2.637026         0.906265
