19
Iteration:  2105charge 0 multiplicity 1
 C         4.826764         0.192009        -0.385306
 C         3.304782         0.169256        -0.316093
 C         2.212410         0.922817        -1.209710
 C         1.420239         0.237522        -0.109874
 C         2.291799        -1.036718        -0.153466
 O         2.431165        -1.616357         1.193165
 C         2.497415        -0.501207         2.049858
 C         2.497808         0.634086         0.948727
 O         2.613587         1.971813         1.437118
 H         5.149940        -0.352570         0.527602
 H         5.362896        -0.155747        -1.281425
 H         5.152728         1.212831        -0.256389
 H         2.423976         2.115597        -1.259342
 H         1.974776         0.414118        -2.084967
 H         0.263356         0.394341         0.058398
 H         2.076245        -1.826108        -0.849296
 H         1.617789        -0.520522         2.817870
 H         3.385866        -0.605806         2.676751
 H         2.369063         2.567859         0.651730
