19
Iteration:  1878charge 0 multiplicity 1
 C         4.897280         0.299672        -0.383175
 C         3.334124         0.087052        -0.272214
 C         2.253613         0.912213        -1.180895
 C         1.409933         0.228663        -0.022415
 C         2.231507        -1.091783        -0.117780
 O         2.303973        -1.609152         1.162879
 C         2.597602        -0.437397         2.012600
 C         2.549344         0.605482         0.886292
 O         2.517375         1.955515         1.413699
 H         5.369720        -0.585224         0.234499
 H         5.248719         0.032394        -1.384293
 H         5.309473         1.303614         0.110428
 H         2.199758         1.982291        -1.212060
 H         2.200304         0.481209        -2.293636
 H         0.319957         0.446970         0.037196
 H         2.255693        -1.809529        -0.870795
 H         1.761023        -0.350565         2.768809
 H         3.611737        -0.508996         2.572613
 H         2.398844         2.561364         0.719587
