19
Iteration:  1238charge 0 multiplicity 1
 C         4.796324         0.153108        -0.433612
 C         3.360792         0.176045        -0.212864
 C         2.275640         0.908516        -1.194428
 C         1.448984         0.276706        -0.145908
 C         2.283216        -1.032106        -0.090937
 O         2.462169        -1.659962         1.219962
 C         2.489546        -0.442116         2.012850
 C         2.493945         0.659208         0.979142
 O         2.476335         1.990993         1.399610
 H         5.199214        -0.862875        -0.103454
 H         5.064660         0.264185        -1.543389
 H         5.361979         1.020245        -0.067654
 H         2.145676         2.054362        -1.206543
 H         2.314562         0.286244        -2.189743
 H         0.320644         0.236528         0.125770
 H         2.203530        -1.962554        -0.780477
 H         1.632504        -0.358197         2.711699
 H         3.467209        -0.562448         2.497416
 H         2.594589         2.543931         0.653589
