19
Iteration:  1119charge 0 multiplicity 1
 C         4.848593         0.093810        -0.441172
 C         3.318497         0.181197        -0.293508
 C         2.248489         0.886750        -1.181420
 C         1.441109         0.233710        -0.088332
 C         2.331611        -0.997209        -0.134842
 O         2.378657        -1.571618         1.174541
 C         2.571069        -0.447529         2.063829
 C         2.480479         0.628394         0.942259
 O         2.444497         1.952914         1.482057
 H         5.485201        -0.158840         0.466864
 H         5.092755        -0.601015        -1.305944
 H         5.097761         1.059678        -0.906296
 H         2.429922         2.070946        -1.151114
 H         2.200599         0.762662        -2.252788
 H         0.433879         0.047872         0.070618
 H         2.532804        -1.800786        -0.898269
 H         1.706536        -0.335573         2.773249
 H         3.556829        -0.297810         2.641157
 H         2.510119         2.547142         0.637215
