19
Iteration:   961charge 0 multiplicity 1
 C         4.778306         0.127360        -0.451701
 C         3.330565         0.174590        -0.246347
 C         2.231147         0.833979        -1.276383
 C         1.362914         0.245159        -0.076727
 C         2.346258        -0.972977        -0.154329
 O         2.561575        -1.620160         1.199478
 C         2.418465        -0.365166         1.976755
 C         2.428636         0.684014         0.931732
 O         2.610064         1.903372         1.568939
 H         5.037326        -0.649457         0.346112
 H         5.232775        -0.271868        -1.323847
 H         5.261004         1.133385        -0.313587
 H         2.259293         1.870270        -1.504815
 H         2.078029         0.211775        -2.291069
 H         0.141924         0.344286        -0.037466
 H         2.471109        -1.796177        -0.930935
 H         1.488834        -0.154371         2.518632
 H         3.177040        -0.297805         2.720679
 H         2.461291         2.699574         1.068052
