19
Iteration:  3031
 C         4.842316         0.123423        -0.440324
 C         3.251558         0.300787        -0.239363
 C         2.255116         1.086585        -1.149757
 C         1.347627         0.239044        -0.066643
 C         2.313183        -0.876548        -0.314289
 O         2.361369        -1.630838         0.909040
 C         2.655700        -0.735268         1.937782
 C         2.417055         0.656443         1.099561
 O         2.615224         1.899805         1.707805
 H         5.228722        -0.842451        -0.838729
 H         5.220961         0.911173        -1.120629
 H         5.263669         0.294386         0.529896
 H         2.504582         2.073216        -0.963012
 H         2.278419         0.831184        -2.189439
 H         0.329878         0.098134        -0.070731
 H         2.220149        -1.575479        -1.219446
 H         1.929194        -0.849899         2.680977
 H         3.683772        -0.668400         2.283319
 H         1.825772         2.239420         2.088328
