19
Iteration:  1991
 C         4.732528         0.069545        -0.464082
 C         3.293183         0.241462        -0.270229
 C         2.359444         0.937848        -1.203237
 C         1.433838         0.207805        -0.068667
 C         2.410724        -1.054824        -0.129967
 O         2.411221        -1.590533         1.161062
 C         2.527172        -0.425982         2.033811
 C         2.458508         0.627766         1.017049
 O         2.480692         1.977330         1.482999
 H         5.285991        -0.582052         0.248225
 H         4.777155        -0.469580        -1.516166
 H         5.292100         1.054286        -0.574159
 H         2.482757         1.998080        -1.176843
 H         2.375370         0.579967        -2.321458
 H         0.400315         0.421520        -0.051603
 H         2.268308        -1.758212        -1.074614
 H         1.809222        -0.368741         2.862759
 H         3.559899        -0.432097         2.504750
 H         1.995182         2.471889         0.802443
