19
Iteration:  4455
 C         4.822634         0.315401        -0.251478
 C         3.346358         0.298844        -0.289985
 C         2.273910         1.178438        -0.965148
 C         1.401719         0.408543        -0.055974
 C         2.261457        -0.865592        -0.313633
 O         2.343194        -1.807248         0.795166
 C         2.472663        -0.840651         1.842143
 C         2.457350         0.549290         1.072869
 O         2.729750         1.799075         1.637556
 H         5.288063         0.835964        -1.233672
 H         5.053722         1.089072         0.564679
 H         5.198671        -0.718267        -0.090330
 H         2.372929         2.227301        -0.610822
 H         1.989335         1.030998        -2.032141
 H         0.301637         0.576086        -0.015720
 H         2.137470        -1.472230        -1.308171
 H         1.656924        -1.153363         2.544442
 H         3.426124        -0.878346         2.382075
 H         2.084501         2.396497         1.378678
