19
Iteration:  1394charge 0 multiplicity 1
 C         4.823960         0.202473        -0.449072
 C         3.335312         0.165782        -0.220633
 C         2.308068         0.782389        -1.319335
 C         1.432698         0.282929        -0.126462
 C         2.324461        -1.037648        -0.115607
 O         2.354467        -1.641561         1.179835
 C         2.595329        -0.412904         2.019669
 C         2.448807         0.665295         0.893541
 O         2.463646         1.970520         1.614411
 H         5.307827        -0.019050         0.507522
 H         5.011927        -0.576340        -1.215815
 H         5.211169         1.269651        -0.717441
 H         2.303258         1.860389        -1.627589
 H         2.151719         0.157732        -2.154000
 H         0.222906         0.376230        -0.176704
 H         2.152912        -1.802467        -0.793821
 H         1.947218        -0.348384         2.875423
 H         3.659141        -0.334019         2.401718
 H         2.815321         2.716809         0.991513
