19
Iteration:  4138
 C         4.887448         0.268435        -0.266372
 C         3.373255         0.186723        -0.344274
 C         2.262774         1.264494        -1.024552
 C         1.465752         0.376346        -0.007212
 C         2.259706        -0.871702        -0.406426
 O         2.314389        -1.708248         0.770669
 C         2.497976        -0.689613         1.852241
 C         2.524568         0.520463         1.027390
 O         2.598012         1.696545         1.842380
 H         5.376832        -0.239926        -1.136364
 H         5.186969         1.304105        -0.286292
 H         5.284364        -0.192576         0.641369
 H         2.180649         2.356518        -0.945830
 H         1.922884         0.945831        -2.046218
 H         0.338005         0.381649         0.075428
 H         1.831577        -1.430172        -1.285504
 H         1.613136        -0.678763         2.510016
 H         3.376206        -0.990118         2.403757
 H         2.142195         2.403639         1.264805
