19
Iteration:  4542charge 0 multiplicity 1
 C         4.825559         0.146878        -0.464697
 C         3.320070         0.312385        -0.153742
 C         2.348857         1.212466        -0.959372
 C         1.441231         0.374420         0.009365
 C         2.300065        -0.899259        -0.424990
 O         2.474780        -1.711673         0.731688
 C         2.466158        -0.745383         1.907637
 C         2.442080         0.572705         1.147657
 O         2.470254         1.812703         1.761145
 H         4.868761         0.402731        -1.599624
 H         5.444661         0.708520         0.277545
 H         5.259760        -0.855486        -0.325484
 H         2.542469         2.272117        -0.827334
 H         2.190622         0.808989        -1.944119
 H         0.348530         0.521109         0.207405
 H         2.152225        -1.443993        -1.443292
 H         1.549073        -1.033001         2.441023
 H         3.334230        -0.838114         2.554019
 H         2.563327         2.492265         1.009880
