19
Iteration:  1001
 C         4.902595         0.184157        -0.315872
 C         3.261593         0.145540        -0.279879
 C         2.275116         0.882427        -1.172493
 C         1.307042         0.212708        -0.092455
 C         2.293379        -1.039115        -0.139024
 O         2.346266        -1.675996         1.195903
 C         2.665161        -0.441207         1.955888
 C         2.470650         0.689744         0.978242
 O         2.557575         2.017609         1.396175
 H         5.456319        -0.661849         0.069063
 H         5.041757         0.359805        -1.415679
 H         5.215007         1.144490         0.242137
 H         2.237598         2.007417        -1.188178
 H         2.300569         0.383292        -2.138739
 H         0.171671         0.180068        -0.128998
 H         2.137530        -1.727876        -0.996769
 H         1.894150        -0.557906         2.772581
 H         3.615559        -0.394529         2.529474
 H         2.461826         2.534340         0.548486
