19
Iteration:  3125charge 0 multiplicity 1
 C         4.752382         0.264133        -0.440982
 C         3.285652         0.332955        -0.192713
 C         2.290448         1.115533        -1.011820
 C         1.426765         0.292170        -0.085287
 C         2.262030        -0.922610        -0.330511
 O         2.331320        -1.755940         0.894304
 C         2.639538        -0.736242         1.925022
 C         2.517602         0.629072         1.110132
 O         2.516642         1.877401         1.633321
 H         5.355425         0.019675         0.449001
 H         4.978299        -0.635062        -1.031842
 H         5.220391         1.199117        -0.803014
 H         2.322381         2.264599        -0.946185
 H         2.249137         0.918842        -2.095960
 H         0.253649         0.376567         0.083045
 H         2.065892        -1.600581        -1.144190
 H         1.831522        -0.952922         2.661953
 H         3.660090        -1.028357         2.178070
 H         3.495517         2.139443         1.495693
