19
Iteration:  4149charge 0 multiplicity 1
 C         4.858657         0.214527        -0.333854
 C         3.344347         0.312421        -0.331520
 C         2.291721         1.134258        -1.116868
 C         1.357772         0.414779        -0.058397
 C         2.236704        -0.839669        -0.340874
 O         2.384717        -1.711778         0.771169
 C         2.482634        -0.765322         1.876925
 C         2.544852         0.607686         1.046339
 O         2.581846         1.666876         1.895976
 H         5.442529        -0.092824        -1.240299
 H         5.128595         1.219807        -0.087911
 H         5.189742        -0.346230         0.551961
 H         2.447023         2.226918        -0.942090
 H         2.283193         1.009828        -2.217839
 H         0.299534         0.643486         0.232044
 H         2.177454        -1.401524        -1.322605
 H         1.610568        -0.706014         2.557663
 H         3.363039        -0.995944         2.467772
 H         2.295931         2.549222         1.398829
