19
Iteration:  3477charge 0 multiplicity 1
 C         4.804305         0.234591        -0.326891
 C         3.334817         0.299648        -0.254484
 C         2.278878         1.182810        -1.037691
 C         1.380887         0.405763        -0.030979
 C         2.220109        -0.818866        -0.333176
 O         2.415212        -1.740148         0.826328
 C         2.523419        -0.750574         1.802878
 C         2.525176         0.540228         1.065475
 O         2.630449         1.760288         1.698819
 H         5.144687        -0.098655        -1.331699
 H         5.239714         1.303888        -0.312026
 H         5.053189        -0.444034         0.437036
 H         2.467579         2.251645        -0.824179
 H         2.233144         0.915428        -2.091963
 H         0.300330         0.419470        -0.082946
 H         1.896795        -1.395015        -1.301652
 H         1.626102        -0.841554         2.480138
 H         3.467512        -0.932523         2.472790
 H         2.138044         1.717846         2.497455
