19
Iteration:  3482
 C         4.804131         0.219090        -0.334515
 C         3.315974         0.337362        -0.223804
 C         2.304413         1.112924        -1.038923
 C         1.392989         0.407441        -0.027001
 C         2.194984        -0.822950        -0.360665
 O         2.410145        -1.739647         0.795962
 C         2.558329        -0.726953         1.811377
 C         2.536047         0.552462         1.067384
 O         2.611669         1.782385         1.719370
 H         5.052623        -0.002196        -1.372339
 H         5.152646         1.220076        -0.169556
 H         5.224595        -0.493773         0.464626
 H         2.362203         2.214235        -1.026189
 H         2.277415         0.858715        -2.147415
 H         0.285012         0.380088        -0.104133
 H         1.855346        -1.287007        -1.235360
 H         1.674644        -0.819983         2.462931
 H         3.329846        -1.088914         2.435567
 H         2.263282         1.726048         2.686711
