19
Iteration:  3955
 C         4.770454         0.298555        -0.229276
 C         3.288321         0.370618        -0.273066
 C         2.298047         1.085435        -1.180762
 C         1.322573         0.430617        -0.160827
 C         2.248567        -0.825668        -0.391210
 O         2.375491        -1.772014         0.841799
 C         2.520719        -0.733094         1.861018
 C         2.478420         0.557969         1.060373
 O         2.768761         1.707624         1.910917
 H         5.114097         0.850496        -1.197992
 H         5.238804         0.587994         0.697714
 H         5.023069        -0.746746        -0.314605
 H         2.241211         2.196024        -1.145711
 H         2.057054         0.676298        -2.234434
 H         0.300890         0.288205        -0.218219
 H         2.224602        -1.477044        -1.356660
 H         1.749879        -0.751727         2.668586
 H         3.580951        -0.867381         2.253903
 H         2.145657         2.399808         1.547973
