19
Iteration:  3995
 C         4.830367         0.255404        -0.408325
 C         3.341394         0.279264        -0.262920
 C         2.328857         1.276432        -0.936384
 C         1.410805         0.360533        -0.091633
 C         2.271422        -0.880947        -0.377464
 O         2.337450        -1.757054         0.833046
 C         2.535380        -0.754539         1.882567
 C         2.534773         0.528689         1.079816
 O         2.498831         1.727154         1.750820
 H         5.333468         0.490919        -1.329860
 H         5.298031         0.953974         0.288479
 H         5.082132        -0.800772        -0.099563
 H         2.615755         2.281377        -0.676531
 H         2.132420         1.065856        -1.995455
 H         0.275061         0.478476        -0.070356
 H         2.125119        -1.376749        -1.317024
 H         1.745597        -0.627148         2.647533
 H         3.425988        -0.860791         2.459003
 H         2.647768         2.428416         1.098407
