19
Iteration:  3663
 C         4.823673         0.198372        -0.416254
 C         3.388565         0.332910        -0.163286
 C         2.239564         1.204787        -1.019653
 C         1.417424         0.368904        -0.016601
 C         2.348018        -0.834053        -0.321810
 O         2.284689        -1.799760         0.735310
 C         2.484961        -0.794257         1.931597
 C         2.489728         0.556054         1.101557
 O         2.607271         1.836961         1.735216
 H         5.238367        -0.108603        -1.353958
 H         5.370313         1.158085        -0.256002
 H         5.198551        -0.507995         0.258656
 H         2.329906         2.294368        -0.764858
 H         2.069301         1.108229        -2.086239
 H         0.359084         0.386386        -0.122095
 H         2.294885        -1.410563        -1.332656
 H         1.693195        -0.871987         2.678817
 H         3.447625        -1.100441         2.321195
 H         2.523937         2.403702         0.959764
