19
Iteration:   380
 C         4.864730         0.047641        -0.397450
 C         3.292284         0.202061        -0.309598
 C         2.324720         0.818073        -1.319566
 C         1.384299         0.238668        -0.132556
 C         2.361272        -1.034149        -0.089049
 O         2.401501        -1.554093         1.234081
 C         2.565871        -0.407381         1.976451
 C         2.411199         0.672194         0.957915
 O         2.444858         1.973427         1.540630
 H         5.251504        -0.809380         0.182730
 H         5.206018        -0.212295        -1.464971
 H         5.436718         1.030178        -0.128455
 H         2.432786         1.973081        -1.155761
 H         2.224090         0.345212        -2.298391
 H         0.350607         0.568471         0.033059
 H         2.306969        -1.795297        -0.792576
 H         1.825143        -0.316117         2.783089
 H         3.583908        -0.266072         2.381958
 H         2.483039         2.673384         0.811984
