19
Iteration:  1127
 C         4.820934         0.125928        -0.451037
 C         3.375414         0.234460        -0.295346
 C         2.309691         0.933186        -1.223312
 C         1.441099         0.181392        -0.098735
 C         2.334198        -1.018588        -0.160413
 O         2.349198        -1.565468         1.204423
 C         2.620558        -0.444271         2.069019
 C         2.476904         0.648603         0.981866
 O         2.433220         1.925843         1.467906
 H         5.309942        -0.111668         0.558401
 H         5.007887        -0.721729        -1.152881
 H         5.114206         1.076411        -0.861383
 H         2.092287         1.989676        -1.069439
 H         2.206988         0.604797        -2.315809
 H         0.281561         0.225830         0.065925
 H         2.084251        -1.914956        -0.769447
 H         1.856149        -0.288730         2.786305
 H         3.550764        -0.681692         2.525140
 H         2.533253         2.476253         0.591665
