19
Iteration:  3057charge 0 multiplicity 1
 C         4.802566         0.212853        -0.429674
 C         3.252275         0.326837        -0.255337
 C         2.226525         0.989916        -1.211750
 C         1.405889         0.450426        -0.035577
 C         2.310433        -0.960203        -0.254367
 O         2.465943        -1.715967         0.923472
 C         2.528877        -0.657756         1.902976
 C         2.474309         0.664183         0.958427
 O         2.655262         1.756539         1.837971
 H         5.185031        -0.774067        -0.557298
 H         5.025921         0.727633        -1.338394
 H         5.293329         0.766254         0.400521
 H         2.362468         2.069119        -1.347901
 H         2.199965         0.480592        -2.183804
 H         0.263651         0.603968        -0.006123
 H         1.975341        -1.554675        -1.055857
 H         1.590480        -0.607269         2.465227
 H         3.425102        -0.592816         2.506973
 H         1.841676         2.255904         1.816370
