19
Iteration:  1604charge 0 multiplicity 1
 C         4.748585         0.069197        -0.416460
 C         3.315064         0.268807        -0.304141
 C         2.268386         0.844643        -1.284382
 C         1.383158         0.293117        -0.156466
 C         2.415671        -0.975440        -0.105928
 O         2.434860        -1.606176         1.161949
 C         2.529359        -0.431818         2.059062
 C         2.423738         0.658180         1.028327
 O         2.571482         1.941447         1.520925
 H         5.091178        -0.178130         0.561773
 H         5.081225        -0.637824        -1.101039
 H         5.306737         0.997654        -0.631238
 H         2.356609         1.951240        -1.496548
 H         2.183627         0.265208        -2.292193
 H         0.223096         0.135206        -0.249663
 H         2.608264        -1.730938        -0.941615
 H         1.703753        -0.656122         2.702305
 H         3.463943        -0.331696         2.681201
 H         1.977746         2.451887         0.982309
