19
Iteration:  2534
 C         4.836163         0.115219        -0.359840
 C         3.305529         0.261927        -0.260440
 C         2.297829         0.943085        -1.234171
 C         1.410382         0.305982        -0.078687
 C         2.262637        -0.981496        -0.185146
 O         2.362825        -1.635848         1.054907
 C         2.618731        -0.491384         1.958111
 C         2.509997         0.634721         1.035090
 O         2.510340         1.882661         1.562735
 H         5.305384         0.624467        -1.204560
 H         5.237498         0.710142         0.420187
 H         5.220910        -0.902717        -0.414837
 H         2.319219         1.971933        -1.228392
 H         1.970824         0.387359        -2.172315
 H         0.365660         0.465351         0.144779
 H         2.266148        -1.601104        -1.020002
 H         1.949108        -0.538381         2.824324
 H         3.646508        -0.591935         2.221721
 H         1.954381         2.414253         1.025585
