19
Iteration:  2670
 C         4.879690         0.118652        -0.448909
 C         3.321152         0.222588        -0.265538
 C         2.298290         1.051436        -1.072111
 C         1.374753         0.315796        -0.012631
 C         2.297352        -1.007889        -0.229357
 O         2.420298        -1.725939         1.003285
 C         2.585147        -0.614181         2.001494
 C         2.418147         0.627558         1.074372
 O         2.451632         2.053267         1.424509
 H         5.140674        -0.888079        -0.814258
 H         5.044156         0.740510        -1.338326
 H         5.608189         0.274534         0.328291
 H         1.978634         2.121385        -0.761477
 H         2.146881         0.710950        -2.051189
 H         0.239225         0.495150         0.149935
 H         2.406482        -1.793167        -1.244742
 H         1.806010        -0.727486         2.782194
 H         3.600544        -0.530849         2.361317
 H         3.079689         2.141248         2.143893
