19
Iteration:  2965
 C         4.754580         0.229138        -0.412305
 C         3.272513         0.346454        -0.181236
 C         2.247098         0.977273        -1.183352
 C         1.352783         0.371080        -0.067593
 C         2.353401        -0.975127        -0.293216
 O         2.441277        -1.723747         0.967295
 C         2.507634        -0.620611         1.900822
 C         2.412433         0.625656         1.012324
 O         2.674647         1.903719         1.665838
 H         4.983538         0.343845        -1.507382
 H         5.354476         1.061084         0.027742
 H         4.984730        -0.708137         0.070511
 H         2.335119         2.051669        -1.181019
 H         2.127158         0.498834        -2.135517
 H         0.301717         0.305412         0.071847
 H         2.214852        -1.610543        -1.251969
 H         1.597159        -0.685417         2.427751
 H         3.431061        -0.822894         2.463786
 H         3.113725         1.590711         2.550149
