19
Iteration:  2153
 C         4.802620         0.076146        -0.463007
 C         3.320083         0.192605        -0.339141
 C         2.343930         0.889864        -1.312197
 C         1.436723         0.278847        -0.183484
 C         2.330491        -0.974779        -0.104120
 O         2.356452        -1.597137         1.245596
 C         2.642521        -0.426559         2.061918
 C         2.411098         0.654100         1.009788
 O         2.447471         1.941096         1.558295
 H         5.103318        -0.931124        -0.270666
 H         5.097500         0.311394        -1.462209
 H         5.382278         0.784041         0.162975
 H         2.081813         1.987753        -1.102526
 H         2.324345         0.465283        -2.369678
 H         0.412747         0.067202        -0.181213
 H         2.296790        -1.814482        -0.858151
 H         1.981498        -0.342180         2.898973
 H         3.686132        -0.430959         2.476326
 H         2.417801         2.466135         0.790956
