19
Iteration:  3938charge 0 multiplicity 1
 C         4.708712         0.290114        -0.303421
 C         3.181645         0.273770        -0.172961
 C         2.377537         1.138987        -1.185369
 C         1.376395         0.375475        -0.104034
 C         2.245582        -0.887108        -0.288732
 O         2.442051        -1.689660         0.760143
 C         2.531950        -0.725577         1.851363
 C         2.343649         0.604701         1.020747
 O         2.773025         1.670163         1.853189
 H         5.199732         0.863427        -1.023043
 H         4.999721         0.723886         0.717331
 H         5.220497        -0.704227        -0.398740
 H         2.575196         2.236294        -1.286214
 H         2.522212         0.851386        -2.199278
 H         0.247985         0.631999         0.026313
 H         2.085113        -1.585307        -1.067509
 H         1.711493        -0.937143         2.535357
 H         3.521408        -0.820911         2.286592
 H         2.394661         2.543165         1.757160
