19
Iteration:   833charge 0 multiplicity 1
 C         4.772063         0.156234        -0.366763
 C         3.309931         0.215097        -0.317375
 C         2.157763         0.780378        -1.265673
 C         1.385721         0.258096        -0.136887
 C         2.362609        -1.054420        -0.131210
 O         2.502295        -1.547603         1.173034
 C         2.432589        -0.425790         1.983397
 C         2.452794         0.669435         0.961611
 O         2.678053         1.950643         1.536448
 H         5.147154        -0.522940         0.439238
 H         5.213726        -0.023667        -1.378649
 H         5.053540         1.117047         0.038411
 H         2.305930         1.929373        -1.317434
 H         1.855818         0.384092        -2.167251
 H         0.384459         0.189971         0.060575
 H         2.323327        -1.948749        -0.848758
 H         1.504051        -0.706284         2.490430
 H         3.296508        -0.429494         2.728605
 H         2.657784         2.722581         0.854898
