19
Iteration:  4523charge 0 multiplicity 1
 C         4.845221         0.155975        -0.458243
 C         3.323222         0.308210        -0.312629
 C         2.348555         1.202826        -1.039194
 C         1.403570         0.337264        -0.124123
 C         2.321786        -0.805821        -0.294895
 O         2.406094        -1.692775         0.865761
 C         2.486781        -0.729505         1.868257
 C         2.480848         0.584621         1.005380
 O         2.517832         1.702094         1.924982
 H         5.133093         0.621955        -1.479729
 H         5.374668         0.659955         0.341625
 H         5.073738        -0.932371        -0.497007
 H         2.343812         2.242367        -0.752310
 H         2.215222         1.035186        -2.129886
 H         0.348181         0.320695        -0.051924
 H         2.334871        -1.379168        -1.236584
 H         1.605054        -0.656158         2.510474
 H         3.367873        -0.787557         2.519159
 H         2.006170         2.420365         1.370012
