19
Iteration:  2302charge 0 multiplicity 1
 C         4.777569         0.166122        -0.430120
 C         3.279940         0.166514        -0.277309
 C         2.259876         0.865076        -1.274668
 C         1.397214         0.283620        -0.163439
 C         2.367337        -1.012545        -0.141233
 O         2.460332        -1.632136         1.148581
 C         2.472898        -0.451327         2.020683
 C         2.462854         0.690261         0.961062
 O         2.592734         1.946568         1.625028
 H         5.351708         0.152154         0.548828
 H         5.025226        -0.830241        -0.802122
 H         5.179752         0.989851        -1.090935
 H         2.233105         1.912909        -1.422396
 H         1.979756         0.383668        -2.282382
 H         0.237436         0.094129        -0.074426
 H         2.382951        -1.764423        -0.860191
 H         1.618832        -0.417815         2.755801
 H         3.449771        -0.405853         2.455722
 H         2.585664         2.708873         1.037059
