19
Iteration:  3043charge 0 multiplicity 1
 C         4.785154         0.203641        -0.444365
 C         3.334596         0.257362        -0.307394
 C         2.281940         0.991077        -1.179507
 C         1.360314         0.358604        -0.109029
 C         2.292641        -0.862962        -0.267557
 O         2.427329        -1.666204         0.877300
 C         2.551511        -0.639833         1.931566
 C         2.398102         0.598512         1.151369
 O         2.652138         1.853846         1.793019
 H         4.979138        -0.864907        -0.626032
 H         5.199473         0.824332        -1.219038
 H         5.305145         0.445408         0.463051
 H         2.209699         1.987809        -1.319999
 H         2.055411         0.507148        -2.118447
 H         0.340578         0.339657        -0.016962
 H         2.315618        -1.450443        -1.230294
 H         1.998384        -0.901646         2.755401
 H         3.563027        -0.758425         2.301290
 H         1.818697         2.339435         1.960986
