19
Iteration:  3639
 C         4.772223         0.253172        -0.332330
 C         3.334207         0.243986        -0.198207
 C         2.336354         1.111883        -1.097703
 C         1.375956         0.380298        -0.038746
 C         2.222326        -0.872086        -0.388753
 O         2.335255        -1.687342         0.776473
 C         2.547927        -0.718045         1.894524
 C         2.491533         0.545557         1.020298
 O         2.638059         1.767823         1.842213
 H         5.273356         0.411899        -1.311310
 H         5.284186         1.057137         0.240203
 H         5.202257        -0.713827        -0.040778
 H         2.446016         2.289173        -1.060100
 H         2.299844         0.763702        -2.132303
 H         0.311636         0.541096         0.138103
 H         2.097664        -1.417011        -1.420023
 H         1.857164        -0.785056         2.729212
 H         3.584541        -0.936498         2.187866
 H         2.204686         2.501591         1.437727
