19
Iteration:   668charge 0 multiplicity 1
 C         4.829195         0.196522        -0.424554
 C         3.314596         0.167781        -0.235626
 C         2.286540         0.868184        -1.189115
 C         1.376486         0.195401        -0.133112
 C         2.335222        -1.018104        -0.095858
 O         2.357947        -1.649421         1.166405
 C         2.552196        -0.432324         2.016685
 C         2.484313         0.697398         0.965885
 O         2.506800         1.950373         1.468906
 H         5.488878         0.008693         0.476596
 H         5.049568        -0.542397        -1.223142
 H         5.217168         1.177334        -0.843424
 H         2.323177         2.070927        -1.255769
 H         2.186669         0.592771        -2.207945
 H         0.327678         0.116856         0.021548
 H         2.347330        -1.738780        -0.978852
 H         1.785007        -0.183743         2.759548
 H         3.567088        -0.576523         2.433532
 H         2.824063         2.503723         0.783742
