19
Iteration:   670charge 0 multiplicity 1
 C         4.832300         0.204483        -0.420672
 C         3.313050         0.155077        -0.248076
 C         2.280678         0.883497        -1.191446
 C         1.375174         0.186670        -0.113185
 C         2.357012        -1.010671        -0.086905
 O         2.360483        -1.639269         1.166922
 C         2.555240        -0.438613         2.007213
 C         2.458817         0.702040         0.959440
 O         2.509806         1.945621         1.467186
 H         5.476409        -0.000672         0.487344
 H         5.019861        -0.579377        -1.236816
 H         5.244153         1.115764        -0.824684
 H         2.362225         2.075413        -1.242449
 H         2.204738         0.556416        -2.231761
 H         0.313375         0.217942         0.066338
 H         2.359171        -1.753656        -0.979468
 H         1.755003        -0.239626         2.729563
 H         3.533066        -0.588906         2.465719
 H         2.835462         2.448941         0.726556
