19
Iteration:   970
 C         4.752918         0.128828        -0.362733
 C         3.293352         0.184574        -0.370475
 C         2.243804         0.872831        -1.295430
 C         1.385222         0.209263        -0.023803
 C         2.396658        -0.992003        -0.129729
 O         2.483570        -1.585554         1.212539
 C         2.474989        -0.395950         1.990498
 C         2.458901         0.705641         0.939038
 O         2.608945         1.887254         1.535318
 H         5.249666        -0.644801         0.252457
 H         5.066904        -0.090680        -1.423930
 H         5.264705         1.127413        -0.038778
 H         2.254006         1.933768        -1.569595
 H         2.255315         0.336255        -2.336843
 H         0.153260         0.113511         0.123824
 H         2.182641        -1.755239        -0.925717
 H         1.451402        -0.393027         2.404384
 H         3.269326        -0.226048         2.682232
 H         2.411935         2.559123         0.881416
