19
Iteration:  4218charge 0 multiplicity 1
 C         4.863246         0.198419        -0.453729
 C         3.384723         0.250313        -0.307322
 C         2.320444         1.231322        -0.957913
 C         1.444946         0.391225         0.034472
 C         2.247186        -0.856923        -0.344195
 O         2.348794        -1.767468         0.797972
 C         2.457962        -0.725590         1.949824
 C         2.579736         0.524612         0.987560
 O         2.425141         1.770281         1.742509
 H         5.392037         0.809820        -1.260073
 H         5.220008         0.653009         0.551658
 H         5.286419        -0.820691        -0.454830
 H         2.368866         2.286138        -0.660748
 H         2.228862         1.184145        -2.093643
 H         0.470418         0.523017         0.457213
 H         2.364775        -1.331253        -1.395545
 H         1.541515        -0.828434         2.506464
 H         3.323513        -0.782793         2.607456
 H         2.935413         2.434533         1.160814
