19
Iteration:  2390charge 0 multiplicity 1
 C         4.806518         0.162319        -0.346035
 C         3.336467         0.136686        -0.365785
 C         2.303365         0.887556        -1.210322
 C         1.347398         0.250486        -0.109894
 C         2.340616        -1.021891        -0.198298
 O         2.313963        -1.584674         1.130607
 C         2.660584        -0.412161         1.992887
 C         2.491027         0.716742         0.879367
 O         2.514855         1.873372         1.665698
 H         5.002384         1.126500         0.204981
 H         5.282244        -0.680471         0.149408
 H         5.158100         0.086353        -1.428229
 H         2.294101         1.936465        -1.492655
 H         2.253561         0.335306        -2.411776
 H         0.190694         0.258030         0.072351
 H         2.108823        -1.844919        -0.784900
 H         1.973144        -0.310838         2.830299
 H         3.681830        -0.560630         2.240338
 H         2.461947         2.742786         1.157104
