19
Iteration:  3919
 C         4.825717         0.247594        -0.258992
 C         3.281207         0.245626        -0.339772
 C         2.281476         1.149430        -1.003835
 C         1.376351         0.415898        -0.069103
 C         2.259533        -0.879798        -0.395464
 O         2.408119        -1.713353         0.845056
 C         2.479593        -0.710500         1.859542
 C         2.476963         0.552376         1.025252
 O         2.688683         1.698619         1.817628
 H         5.197100         0.788612        -1.168037
 H         5.244529         0.871641         0.530966
 H         5.274424        -0.761512        -0.507592
 H         2.325015         2.234073        -0.912729
 H         2.148664         1.156346        -2.184183
 H         0.232716         0.506199        -0.116403
 H         2.087098        -1.385602        -1.346173
 H         1.607930        -0.875356         2.537589
 H         3.376904        -0.657024         2.489022
 H         2.294681         2.442254         1.241721
