19
Iteration:  4299charge 0 multiplicity 1
 C         4.884455         0.293262        -0.266265
 C         3.303810         0.307567        -0.331923
 C         2.223426         1.112037        -1.148015
 C         1.332679         0.467401         0.010965
 C         2.252631        -0.906062        -0.327681
 O         2.420167        -1.739632         0.777963
 C         2.459509        -0.776839         1.830304
 C         2.504560         0.591227         1.004670
 O         2.680924         1.700683         1.876486
 H         5.401430         0.155520        -1.236318
 H         5.179706         1.363418         0.171402
 H         5.171076        -0.531744         0.498247
 H         2.611014         2.180426        -1.161557
 H         2.016656         0.849651        -2.184964
 H         0.225124         0.581859         0.099366
 H         2.049231        -1.411222        -1.210592
 H         1.506257        -0.818197         2.414028
 H         3.295851        -1.026659         2.522057
 H         2.500193         2.551087         1.326288
