19
Iteration:  2793charge 0 multiplicity 1
 C         4.831732         0.225620        -0.508920
 C         3.310770         0.243095        -0.285599
 C         2.291998         1.089271        -1.042876
 C         1.419188         0.254632        -0.063776
 C         2.277853        -0.947970        -0.245341
 O         2.353878        -1.647799         1.037790
 C         2.503164        -0.625421         1.999276
 C         2.514476         0.625789         1.035756
 O         2.535627         1.863588         1.521031
 H         5.426860         0.413003         0.405511
 H         5.090924        -0.685500        -1.010258
 H         5.147035         1.040719        -1.104584
 H         2.247810         2.136004        -0.977463
 H         2.183886         0.801872        -2.101172
 H         0.351567         0.085450        -0.109510
 H         2.253672        -1.791754        -1.027287
 H         1.699379        -0.750580         2.716339
 H         3.374791        -0.754464         2.569131
 H         3.297656         2.019972         2.007361
