19
Iteration:  1228charge 0 multiplicity 1
 C         4.817031         0.142984        -0.450384
 C         3.306406         0.197365        -0.266791
 C         2.271559         0.868575        -1.188990
 C         1.384279         0.183540        -0.063100
 C         2.324034        -1.006077        -0.100609
 O         2.454371        -1.593925         1.179412
 C         2.488986        -0.452807         2.077226
 C         2.474949         0.661404         0.956081
 O         2.542419         1.970667         1.401173
 H         5.343622        -0.701167         0.083188
 H         5.064775         0.129464        -1.563222
 H         5.230530         1.039268         0.083821
 H         2.460951         2.024056        -1.289351
 H         2.356923         0.583646        -2.271281
 H         0.288306         0.221148        -0.048717
 H         2.264331        -1.761785        -0.933652
 H         1.533670        -0.576550         2.590737
 H         3.228484        -0.336349         2.861543
 H         2.575409         2.555846         0.616877
