19
Iteration:  4166charge 0 multiplicity 1
 C         4.742765         0.224835        -0.381578
 C         3.319694         0.311028        -0.190575
 C         2.365430         1.164090        -1.134211
 C         1.424498         0.447818        -0.130419
 C         2.301405        -0.875878        -0.342060
 O         2.442587        -1.713185         0.793521
 C         2.483046        -0.728790         1.821602
 C         2.387247         0.599260         1.069507
 O         2.599064         1.693486         1.985801
 H         4.769888         0.032081        -1.441038
 H         5.492083         0.930443         0.060268
 H         5.147812        -0.724827         0.069498
 H         2.333134         2.236979        -1.393809
 H         2.193284         0.676858        -2.096599
 H         0.340002         0.414553        -0.245873
 H         2.126941        -1.423434        -1.235807
 H         1.619442        -0.892004         2.499279
 H         3.433278        -0.798514         2.412598
 H         2.693289         2.495682         1.339737
