19
Iteration:  3487
 C         4.796761         0.205254        -0.338350
 C         3.286950         0.348697        -0.206748
 C         2.338218         1.075431        -1.067514
 C         1.400249         0.398064        -0.036042
 C         2.193554        -0.846218        -0.362563
 O         2.393863        -1.722694         0.739822
 C         2.567008        -0.742009         1.850860
 C         2.524558         0.591715         1.067048
 O         2.598499         1.814068         1.762811
 H         5.035673        -0.016678        -1.398769
 H         5.199072         1.197646         0.078457
 H         5.379311        -0.445598         0.270875
 H         2.229790         2.174187        -1.156769
 H         2.242148         0.722692        -2.066757
 H         0.311258         0.415291         0.061162
 H         1.948054        -1.380911        -1.366082
 H         1.665065        -0.725174         2.496298
 H         3.468347        -1.119889         2.462869
 H         2.461259         1.690963         2.662163
