19
Iteration:  1513
 C         4.826695         0.182803        -0.390138
 C         3.306691         0.171412        -0.318345
 C         2.287106         0.786828        -1.353570
 C         1.399929         0.166778        -0.185045
 C         2.331286        -1.040218        -0.134000
 O         2.315031        -1.551523         1.216505
 C         2.622505        -0.499298         2.031996
 C         2.437083         0.710435         0.958278
 O         2.549055         2.015925         1.608402
 H         5.249055        -0.595956         0.189231
 H         5.249017         0.153144        -1.387994
 H         5.160649         1.091048         0.022930
 H         2.201796         1.852732        -1.332754
 H         2.218027         0.288272        -2.489554
 H         0.233977         0.123165        -0.078908
 H         2.286912        -1.865287        -0.784816
 H         1.866188        -0.477830         2.892698
 H         3.597816        -0.139749         2.417765
 H         2.673462         2.741768         1.024483
