19
Iteration:   705charge 0 multiplicity 1
 C         4.804119         0.101950        -0.310759
 C         3.289728         0.152496        -0.248023
 C         2.195800         0.914915        -1.247854
 C         1.356366         0.170440        -0.118116
 C         2.274715        -0.959509        -0.110520
 O         2.594931        -1.630139         1.134933
 C         2.510505        -0.418836         1.992358
 C         2.479177         0.666999         0.945150
 O         2.575019         2.002701         1.489619
 H         5.269944        -0.437849         0.507302
 H         5.031671        -0.568855        -1.218582
 H         5.149426         1.075360        -0.537796
 H         2.329859         2.018236        -1.215627
 H         2.154341         0.527810        -2.361583
 H         0.230995         0.255853        -0.101420
 H         2.201337        -1.649166        -0.948272
 H         1.485312        -0.452571         2.388383
 H         3.172518        -0.557916         2.823562
 H         2.441770         2.634168         0.825291
