19
Iteration:  4314
 C         4.715827         0.287819        -0.338413
 C         3.311310         0.285328        -0.200577
 C         2.344030         1.169604        -1.020478
 C         1.470378         0.445719        -0.042922
 C         2.275566        -0.849875        -0.353039
 O         2.427798        -1.770016         0.743974
 C         2.446467        -0.800964         1.834856
 C         2.483906         0.542696         1.115638
 O         2.626697         1.774010         1.783450
 H         5.030101        -0.165667        -1.305320
 H         5.185413         1.218040        -0.308358
 H         5.181616        -0.321301         0.382848
 H         2.190357         2.220181        -0.933705
 H         2.232495         0.733294        -2.028271
 H         0.378494         0.516668         0.093558
 H         2.032532        -1.434070        -1.320374
 H         1.514836        -0.897690         2.442330
 H         3.326490        -0.926600         2.495934
 H         2.594127         2.368086         1.078218
