19
Iteration:  3980charge 0 multiplicity 1
 C         4.907936         0.235305        -0.296714
 C         3.367704         0.304256        -0.361421
 C         2.246138         1.180505        -1.046847
 C         1.452075         0.326081         0.016659
 C         2.305778        -0.868749        -0.391682
 O         2.279029        -1.676717         0.822485
 C         2.496641        -0.693651         1.839349
 C         2.486070         0.557451         1.002264
 O         2.588185         1.694131         1.828975
 H         5.160809         0.640348        -1.281287
 H         5.287432         0.799768         0.613236
 H         5.353676        -0.755271        -0.168405
 H         2.081522         2.301808        -0.757016
 H         2.120601         1.169306        -2.136416
 H         0.406492         0.155304         0.381163
 H         2.102413        -1.541912        -1.263486
 H         1.650326        -0.845675         2.525421
 H         3.542970        -0.912375         2.246169
 H         2.372727         2.552904         1.250486
