19
Iteration:   334charge 0 multiplicity 1
 C         4.866636         0.151323        -0.445875
 C         3.303806         0.172833        -0.263719
 C         2.271997         0.932384        -1.219755
 C         1.362265         0.287340        -0.072426
 C         2.385751        -1.024436        -0.013773
 O         2.470128        -1.649018         1.246769
 C         2.362696        -0.465188         2.036631
 C         2.457896         0.709051         0.915024
 O         2.631069         1.947247         1.328682
 H         5.162336        -0.759605         0.173975
 H         5.107972        -0.108857        -1.530842
 H         5.171897         1.112819        -0.099798
 H         2.364801         2.093569        -1.221795
 H         2.274223         0.319248        -2.127556
 H         0.255605         0.044009         0.046015
 H         2.370837        -1.828094        -0.779291
 H         1.395524        -0.629387         2.534096
 H         3.143482        -0.520819         2.755047
 H         2.112667         2.695212         0.787195
