19
Iteration:  2374charge 0 multiplicity 1
 C         4.839263         0.154281        -0.410047
 C         3.332016         0.204545        -0.227726
 C         2.274135         0.839574        -1.274967
 C         1.425782         0.272183        -0.147848
 C         2.236097        -0.966294        -0.137816
 O         2.375052        -1.601168         1.126661
 C         2.641393        -0.490662         1.957877
 C         2.434776         0.672804         1.032316
 O         2.495926         1.939650         1.589897
 H         5.458704         0.797483         0.224986
 H         5.146086        -0.877371        -0.044175
 H         5.103748         0.343241        -1.421510
 H         2.349719         1.959055        -1.358596
 H         2.144565         0.366224        -2.218811
 H         0.392296         0.334688        -0.090497
 H         2.306826        -1.642936        -1.081044
 H         1.926676        -0.557390         2.808366
 H         3.722291        -0.507571         2.382166
 H         2.408258         2.479761         0.816045
