19
Iteration:  4183
 C         4.815840         0.106227        -0.493000
 C         3.286996         0.357643        -0.195594
 C         2.339212         1.121320        -1.075432
 C         1.352717         0.344548        -0.174951
 C         2.381691        -0.795343        -0.358125
 O         2.425686        -1.673355         0.775783
 C         2.432404        -0.658162         1.932018
 C         2.356812         0.581105         1.099363
 O         2.569542         1.695166         1.954150
 H         5.113617         0.398193        -1.550337
 H         5.356233         0.763731         0.224790
 H         5.221794        -0.853945        -0.296429
 H         2.382305         2.173528        -0.837234
 H         2.531612         0.935878        -2.168641
 H         0.261404         0.388075        -0.076902
 H         2.546259        -1.386063        -1.351811
 H         1.676244        -0.913299         2.673475
 H         3.416820        -0.678273         2.369056
 H         3.075826         2.474260         1.503943
