19
Iteration:  4358
 C         4.854764         0.145956        -0.542535
 C         3.364064         0.345127        -0.287327
 C         2.341197         1.322995        -1.043292
 C         1.503248         0.351686        -0.086572
 C         2.329472        -0.907067        -0.376370
 O         2.329219        -1.720611         0.848164
 C         2.490560        -0.664709         1.940959
 C         2.485063         0.549225         1.033929
 O         2.419181         1.651456         1.926223
 H         5.029702        -0.638781        -1.362894
 H         5.251189         1.086144        -0.776862
 H         5.336695        -0.135698         0.366242
 H         2.426738         2.301554        -0.574266
 H         2.097849         1.173518        -2.123090
 H         0.426407         0.479211         0.062375
 H         2.320218        -1.485373        -1.410332
 H         1.731663        -0.712909         2.758948
 H         3.518374        -0.844916         2.335372
 H         2.562700         2.499971         1.646612
