19
Iteration:  4837charge 0 multiplicity 1
 C         4.771187         0.314599        -0.448745
 C         3.242476         0.332930        -0.293549
 C         2.285928         1.101194        -1.111600
 C         1.380027         0.322641        -0.079921
 C         2.381883        -0.947162        -0.352364
 O         2.372138        -1.625361         0.860326
 C         2.532507        -0.657972         1.834171
 C         2.360624         0.562026         1.086292
 O         2.696993         1.646532         1.935948
 H         5.036435         1.026034        -1.291708
 H         5.079202         0.669611         0.490805
 H         5.068793        -0.683867        -0.625133
 H         2.391974         2.156799        -0.986971
 H         2.213698         0.659902        -2.136547
 H         0.344878         0.490234        -0.109296
 H         2.489232        -1.638658        -1.170930
 H         1.785193        -0.833384         2.617791
 H         3.516802        -0.736747         2.318041
 H         2.614368         2.548863         1.522363
