19
Iteration:   225charge 0 multiplicity 1
 C         4.875747         0.055263        -0.426943
 C         3.318178         0.215012        -0.275925
 C         2.269138         0.891334        -1.174905
 C         1.286968         0.251566        -0.132524
 C         2.362843        -1.012454        -0.075332
 O         2.524990        -1.563535         1.202638
 C         2.469347        -0.448428         2.068801
 C         2.412354         0.621418         0.941921
 O         2.507707         2.005863         1.342410
 H         5.489401        -0.424202         0.452345
 H         5.049275        -0.548222        -1.382719
 H         5.547033         0.963307        -0.644733
 H         2.205723         2.053709        -0.952901
 H         2.070723         0.550839        -2.236532
 H         0.192392         0.256397         0.036219
 H         2.049126        -1.773175        -0.784916
 H         1.430533        -0.416269         2.468904
 H         3.169395        -0.455431         2.937148
 H         3.439338         2.183045         1.258093
