19
Iteration:  3469charge 0 multiplicity 1
 C         4.808604         0.264139        -0.356590
 C         3.289625         0.256252        -0.317179
 C         2.275617         1.288647        -0.999165
 C         1.385958         0.400138        -0.060317
 C         2.276421        -0.876095        -0.331767
 O         2.409289        -1.727876         0.829844
 C         2.484661        -0.794582         1.886386
 C         2.469851         0.541400         1.025569
 O         2.675500         1.739796         1.686113
 H         5.224456        -0.359249        -1.147865
 H         5.354924         1.242843        -0.247094
 H         5.176006        -0.338614         0.508856
 H         2.441890         2.305879        -0.651571
 H         2.050228         1.124960        -2.115761
 H         0.318176         0.490096         0.187847
 H         2.260136        -1.575302        -1.221864
 H         1.620653        -0.815976         2.598837
 H         3.453294        -0.658613         2.354666
 H         1.962057         1.774227         2.277931
