19
Iteration:  1290charge 0 multiplicity 1
 C         4.819329         0.081791        -0.345747
 C         3.310410         0.264679        -0.297869
 C         2.226462         0.816208        -1.291444
 C         1.420162         0.236973        -0.155325
 C         2.325486        -1.035938        -0.121169
 O         2.421288        -1.632846         1.215257
 C         2.650940        -0.349613         1.993613
 C         2.426328         0.716852         0.914777
 O         2.493522         1.943799         1.547290
 H         5.094970        -0.917592         0.019007
 H         5.120788         0.064419        -1.377369
 H         5.375508         0.828601         0.119130
 H         2.346472         1.838911        -1.312955
 H         2.263007         0.290148        -2.331269
 H         0.145013         0.349461        -0.010616
 H         2.401772        -1.951860        -0.882662
 H         1.748063        -0.324141         2.680916
 H         3.658155        -0.308291         2.472405
 H         2.161430         2.732011         1.041789
