19
Iteration:   289
 C         4.817687         0.198383        -0.336377
 C         3.343706         0.181852        -0.329188
 C         2.286760         0.736961        -1.325049
 C         1.378188         0.266309        -0.153364
 C         2.307890        -0.968489        -0.142168
 O         2.308934        -1.663741         1.277480
 C         2.649129        -0.376052         2.019386
 C         2.432288         0.682708         0.900938
 O         2.579414         1.936964         1.541978
 H         5.204984        -0.359693         0.571565
 H         5.187883        -0.247716        -1.267486
 H         5.063058         1.187635        -0.294108
 H         2.406603         1.791055        -1.388420
 H         2.090879         0.267788        -2.327928
 H         0.257976         0.242557        -0.129826
 H         2.078708        -1.738172        -0.936229
 H         1.900227        -0.051049         2.744900
 H         3.609146        -0.417242         2.495120
 H         2.500470         2.635993         0.794065
