19
Iteration:  1844charge 0 multiplicity 1
 C         4.709730         0.168595        -0.404219
 C         3.305872         0.142648        -0.300898
 C         2.264326         0.815080        -1.317514
 C         1.390377         0.282456        -0.098082
 C         2.416316        -1.048848        -0.141420
 O         2.457583        -1.593956         1.144474
 C         2.484184        -0.428922         2.029402
 C         2.400289         0.715677         0.967457
 O         2.635052         1.941685         1.597836
 H         5.187357        -0.383083         0.491547
 H         4.944127        -0.416380        -1.325401
 H         5.191798         1.246446        -0.570037
 H         2.316503         1.872212        -1.521081
 H         2.443710         0.262208        -2.322735
 H         0.240800         0.289067        -0.119834
 H         2.482310        -1.795157        -0.872516
 H         1.531484        -0.367257         2.651846
 H         3.393123        -0.385874         2.722046
 H         2.240114         2.699843         1.154280
