19
Iteration:  3849charge 0 multiplicity 1
 C         4.778838         0.202963        -0.446069
 C         3.347739         0.268012        -0.274045
 C         2.369005         1.122295        -1.083181
 C         1.345523         0.463091        -0.147546
 C         2.302229        -0.891630        -0.378353
 O         2.432218        -1.688718         0.853807
 C         2.527800        -0.696586         1.869532
 C         2.448914         0.602404         1.066992
 O         2.531530         1.642798         1.958537
 H         5.024999        -0.347210        -1.333435
 H         5.137746         1.250750        -0.579599
 H         5.058297        -0.420986         0.381634
 H         2.479193         2.236693        -0.959557
 H         2.421981         1.010153        -2.143578
 H         0.320897         0.877137        -0.149001
 H         2.144005        -1.485800        -1.286754
 H         1.657787        -0.604224         2.519085
 H         3.352147        -0.847917         2.550971
 H         2.645182         2.551191         1.694754
