19
Iteration:  4996charge 0 multiplicity 1
 C         4.764279         0.423756        -0.410292
 C         3.345139         0.301062        -0.216719
 C         2.360866         1.158795        -0.936344
 C         1.422201         0.292990        -0.110271
 C         2.219552        -0.918658        -0.376754
 O         2.284543        -1.695053         0.810784
 C         2.562084        -0.799721         1.909173
 C         2.467441         0.543218         1.118889
 O         2.632158         1.700575         1.748834
 H         5.002177         0.068269        -1.376384
 H         4.938531         1.505229        -0.704817
 H         5.555998         0.093654         0.253655
 H         2.279235         2.271664        -0.636659
 H         2.170553         1.102327        -2.014937
 H         0.300863         0.229147         0.032064
 H         2.015987        -1.566480        -1.218944
 H         1.837539        -0.882928         2.774441
 H         3.618244        -0.815402         2.280373
 H         3.013558         2.221222         0.904184
