19
Iteration:   889
 C         4.857308         0.097680        -0.438217
 C         3.352249         0.194284        -0.342213
 C         2.294469         0.927007        -1.179113
 C         1.375122         0.184514        -0.116340
 C         2.286291        -1.005716        -0.179126
 O         2.327399        -1.615832         1.201814
 C         2.645162        -0.430272         2.043336
 C         2.479971         0.657419         0.993907
 O         2.452872         1.982578         1.487016
 H         5.293941        -0.109884         0.546295
 H         5.376143        -0.635578        -1.167430
 H         5.219835         1.028438        -0.815430
 H         2.463120         2.085969        -1.099601
 H         2.213849         0.601993        -2.151635
 H         0.358099         0.075746         0.095114
 H         2.193558        -1.725968        -0.979012
 H         2.066002        -0.543009         2.989581
 H         3.718295        -0.339225         2.461840
 H         2.219837         2.541096         0.691176
