19
Iteration:  1275
 C         4.830261         0.081599        -0.420191
 C         3.322673         0.142211        -0.309308
 C         2.315668         0.817574        -1.244749
 C         1.380907         0.170314        -0.180704
 C         2.330160        -0.996346        -0.129382
 O         2.394315        -1.482740         1.191350
 C         2.621042        -0.402637         2.003922
 C         2.478167         0.687432         0.987044
 O         2.431922         1.961803         1.564885
 H         5.196015        -0.857148        -0.010360
 H         5.166254         0.172940        -1.466420
 H         5.280748         0.821952         0.362185
 H         2.062626         1.970671        -1.541781
 H         2.158888         0.423755        -2.183874
 H         0.369869        -0.000683        -0.063924
 H         2.175080        -1.719928        -0.844277
 H         2.116330        -0.205537         2.943677
 H         3.678310        -0.463552         2.358927
 H         2.328260         2.540998         0.847698
