19
Iteration:  1010
 C         4.811491         0.199480        -0.310443
 C         3.291261         0.187775        -0.219255
 C         2.303867         0.855421        -1.189826
 C         1.383480         0.246638        -0.070086
 C         2.301099        -1.018143        -0.111757
 O         2.342947        -1.629373         1.162300
 C         2.643788        -0.470404         1.993419
 C         2.402817         0.594482         0.940383
 O         2.542949         1.992947         1.356003
 H         5.327582        -0.689115        -0.048967
 H         5.176691         0.432832        -1.361918
 H         5.153308         1.106846         0.185629
 H         2.487124         1.994338        -1.256023
 H         2.179269         0.595446        -2.194642
 H         0.432417         0.065912         0.199304
 H         2.122853        -1.809461        -0.831530
 H         2.031084        -0.291979         2.937711
 H         3.802029        -0.590238         2.133597
 H         2.554100         2.568869         0.533148
