19
Iteration:  2029
 C         4.912370         0.168852        -0.441027
 C         3.302815         0.152249        -0.302371
 C         2.329198         0.882928        -1.191663
 C         1.423034         0.269821        -0.011047
 C         2.287896        -1.090187        -0.148367
 O         2.329095        -1.615122         1.153833
 C         2.610684        -0.402724         1.958697
 C         2.487088         0.681661         0.961439
 O         2.452312         1.945657         1.528060
 H         5.392062        -0.064108         0.499217
 H         5.076858        -0.600875        -1.120916
 H         5.321628         1.014104        -0.944884
 H         2.050669         2.028437        -1.332904
 H         2.306120         0.592481        -2.193016
 H         0.256452         0.347335         0.111580
 H         2.074076        -1.873614        -0.842060
 H         1.738608        -0.403313         2.637745
 H         3.526248        -0.486034         2.512777
 H         2.616982         2.550913         0.836004
