19
Iteration:  4691
 C         4.797813         0.182952        -0.452039
 C         3.279081         0.328091        -0.213695
 C         2.255960         1.188046        -0.966566
 C         1.395608         0.351164        -0.028568
 C         2.372417        -0.904183        -0.434956
 O         2.477208        -1.683513         0.800214
 C         2.485635        -0.728985         1.839362
 C         2.399457         0.560031         1.084303
 O         2.645764         1.770320         1.823914
 H         4.894812        -0.053123        -1.483324
 H         5.312499         1.183989        -0.293821
 H         5.129123        -0.643056         0.221314
 H         2.533965         2.277142        -0.861124
 H         2.278120         1.031066        -2.047677
 H         0.267240         0.532733         0.109904
 H         2.162944        -1.536484        -1.329400
 H         1.644257        -1.004465         2.445809
 H         3.410710        -0.722815         2.459516
 H         1.678825         2.161312         1.833316
