19
Iteration:  2085charge 0 multiplicity 1
 C         4.717635         0.202179        -0.311295
 C         3.258694         0.164257        -0.332233
 C         2.242992         0.840653        -1.272355
 C         1.309338         0.205965        -0.068682
 C         2.345342        -1.025731        -0.152703
 O         2.504287        -1.618494         1.158197
 C         2.422405        -0.367899         1.959676
 C         2.503427         0.704444         0.943504
 O         2.733621         1.873509         1.534620
 H         5.201442        -0.111069         0.607094
 H         5.053885        -0.421854        -1.059947
 H         5.072419         1.200170        -0.576880
 H         2.239700         1.962149        -1.058752
 H         2.218833         0.543981        -2.278406
 H         0.199338         0.245512        -0.151240
 H         2.336701        -1.752377        -0.882237
 H         1.548463        -0.384984         2.626894
 H         3.298389        -0.321608         2.593488
 H         2.536973         2.614070         0.882106
