19
Iteration:  2160charge 0 multiplicity 1
 C         4.848350         0.066939        -0.481927
 C         3.332794         0.193604        -0.298010
 C         2.297644         0.901362        -1.319822
 C         1.396291         0.218632        -0.168463
 C         2.365093        -0.992419        -0.093314
 O         2.384969        -1.604649         1.234887
 C         2.648741        -0.356709         2.045561
 C         2.363177         0.681397         0.919720
 O         2.459359         1.911095         1.601616
 H         5.149087        -0.992923        -0.266306
 H         5.276714         0.263798        -1.476929
 H         5.416304         0.639643         0.271143
 H         2.346089         2.080815        -1.327421
 H         2.215221         0.548392        -2.274902
 H         0.226915         0.306886        -0.017435
 H         2.120949        -1.738614        -0.763952
 H         1.740911        -0.378172         2.743349
 H         3.589987        -0.446708         2.547573
 H         2.482262         2.606318         0.918607
