19
Iteration:  2674
 C         4.849477         0.110907        -0.442254
 C         3.341971         0.233705        -0.253719
 C         2.258788         1.038082        -1.053426
 C         1.376178         0.338570         0.008763
 C         2.319425        -1.016275        -0.267890
 O         2.450173        -1.724866         1.010708
 C         2.564940        -0.602966         1.982537
 C         2.392509         0.642709         1.040241
 O         2.464974         2.025087         1.412855
 H         5.212395        -0.927784        -0.727248
 H         5.093897         0.709741        -1.339196
 H         5.610995         0.250860         0.374725
 H         2.100682         2.113032        -0.843921
 H         2.132716         0.718608        -2.135655
 H         0.318453         0.540878         0.255532
 H         2.254827        -1.615575        -1.071536
 H         1.790214        -0.802088         2.751129
 H         3.629136        -0.511160         2.517696
 H         3.070104         2.131294         2.235327
