19
Iteration:   539
 C         4.835249         0.083256        -0.368319
 C         3.320652         0.177211        -0.327574
 C         2.259124         0.882306        -1.259498
 C         1.431692         0.284171        -0.145023
 C         2.349788        -1.144083        -0.127156
 O         2.403974        -1.652797         1.196172
 C         2.610738        -0.419277         1.974326
 C         2.438577         0.739265         0.982629
 O         2.440770         2.061624         1.552914
 H         5.062984        -0.853971         0.244569
 H         5.292928        -0.008781        -1.386903
 H         5.282023         0.894715         0.125906
 H         2.211165         1.916725        -1.260542
 H         2.055263         0.405431        -2.233423
 H         0.308654         0.331673        -0.210909
 H         2.310857        -2.014131        -0.945825
 H         1.899130        -0.438310         2.829205
 H         3.635829        -0.309986         2.374400
 H         2.573696         2.651194         0.707716
