19
Iteration:  3673
 C         4.905345         0.192137        -0.416768
 C         3.328408         0.264609        -0.219530
 C         2.245118         1.258819        -0.924544
 C         1.388917         0.371345        -0.097713
 C         2.326446        -0.870685        -0.378857
 O         2.342453        -1.749192         0.783600
 C         2.436964        -0.740030         1.953386
 C         2.511048         0.521391         1.076293
 O         2.574319         1.763409         1.722949
 H         5.042226        -0.352013        -1.407740
 H         5.407773         1.198228        -0.444744
 H         5.378235        -0.308993         0.404649
 H         2.211153         2.418461        -0.709863
 H         2.137842         1.180051        -2.005402
 H         0.379179         0.455184         0.245065
 H         2.336702        -1.283205        -1.488355
 H         1.687904        -0.754953         2.739741
 H         3.391892        -0.897074         2.458701
 H         2.750505         2.478939         1.169500
