19
Iteration:   844charge 0 multiplicity 1
 C         4.805295         0.213680        -0.342953
 C         3.263211         0.181601        -0.352911
 C         2.249849         0.777007        -1.261776
 C         1.327841         0.243801        -0.095062
 C         2.291691        -1.017964        -0.122659
 O         2.544238        -1.588247         1.125026
 C         2.473876        -0.415026         2.047053
 C         2.437963         0.695029         0.953287
 O         2.664080         1.917317         1.539169
 H         5.023587        -0.562275         0.428253
 H         5.272496        -0.277843        -1.245923
 H         5.368055         1.106919        -0.188959
 H         2.000685         1.886900        -1.434235
 H         2.167235         0.254301        -2.153061
 H         0.313178         0.303361        -0.216172
 H         2.057229        -1.720355        -0.980912
 H         1.587949        -0.129335         2.630950
 H         3.337871        -0.536874         2.771043
 H         2.452997         2.618753         0.841622
