19
Iteration:  4516charge 0 multiplicity 1
 C         4.868647         0.159024        -0.457815
 C         3.345199         0.353476        -0.310010
 C         2.311660         1.263176        -1.122261
 C         1.398571         0.344794        -0.154482
 C         2.311176        -0.884073        -0.354246
 O         2.372959        -1.703765         0.930684
 C         2.516873        -0.709073         1.859530
 C         2.467929         0.586917         1.036130
 O         2.534328         1.674394         1.944729
 H         5.108345         0.579295        -1.360274
 H         5.393646         0.566480         0.418556
 H         5.281679        -0.850631        -0.485738
 H         2.485143         2.362762        -0.859254
 H         2.082041         1.015868        -2.189792
 H         0.290586         0.294857        -0.005767
 H         2.324876        -1.484828        -1.214999
 H         1.586888        -0.754505         2.485799
 H         3.411461        -0.711564         2.559234
 H         1.982126         2.418706         1.662157
