19
Iteration:  4353
 C         4.873923         0.152377        -0.567880
 C         3.394582         0.307053        -0.283103
 C         2.306380         1.319768        -0.954911
 C         1.536577         0.331581        -0.132086
 C         2.328312        -0.903025        -0.379530
 O         2.338161        -1.712084         0.870500
 C         2.475672        -0.676134         1.916865
 C         2.419705         0.560819         1.059220
 O         2.448514         1.651701         1.892457
 H         4.939876        -0.630519        -1.303303
 H         5.341295         1.221232        -0.770398
 H         5.253957        -0.166918         0.478530
 H         2.205647         2.392340        -0.556549
 H         2.123440         1.303409        -2.025121
 H         0.442442         0.520621        -0.077357
 H         2.292019        -1.384280        -1.275694
 H         1.746534        -0.677983         2.732286
 H         3.477088        -0.958132         2.230034
 H         2.667502         2.568744         1.435364
