19
Iteration:  2599charge 0 multiplicity 1
 C         4.722751         0.228983        -0.388692
 C         3.297497         0.246256        -0.275380
 C         2.259544         0.898476        -1.254536
 C         1.396936         0.254944        -0.045674
 C         2.320617        -0.986450        -0.206357
 O         2.446909        -1.661765         0.996249
 C         2.445701        -0.542062         1.971825
 C         2.466000         0.649835         1.035242
 O         2.641242         1.943047         1.664348
 H         5.085950        -0.167621        -1.365733
 H         5.172042         1.233378        -0.281992
 H         5.182320        -0.376899         0.445803
 H         2.355614         1.940844        -1.451138
 H         2.092890         0.273531        -2.188110
 H         0.318313         0.341856         0.067712
 H         2.356462        -1.599434        -1.019393
 H         1.553724        -0.490464         2.578727
 H         3.376310        -0.679959         2.480813
 H         3.288238         2.370638         1.106588
