19
Iteration:   113
 C         4.856742         0.160380        -0.351349
 C         3.291026         0.161634        -0.339074
 C         2.236541         0.861647        -1.182524
 C         1.346309         0.224648        -0.054329
 C         2.227861        -1.033197        -0.088247
 O         2.507591        -1.579713         1.179188
 C         2.488006        -0.435443         2.041496
 C         2.497976         0.639635         0.949898
 O         2.565895         2.012858         1.255028
 H         5.167816        -0.630245         0.496462
 H         5.155568        -0.045998        -1.375345
 H         5.259473         1.090148        -0.056834
 H         2.515430         1.857002        -1.129673
 H         2.119666         0.489456        -2.276650
 H         0.243988         0.194827         0.016472
 H         2.088707        -1.805247        -0.887601
 H         1.623900        -0.445709         2.723009
 H         3.432368        -0.402288         2.619535
 H         2.985753         2.167171         2.175727
