19
Iteration:  4128
 C         4.896620         0.307297        -0.255389
 C         3.323725         0.275158        -0.296640
 C         2.240458         1.241088        -0.950903
 C         1.495023         0.394888        -0.054976
 C         2.262243        -0.913015        -0.404291
 O         2.251642        -1.702278         0.791088
 C         2.504542        -0.778462         1.821048
 C         2.524431         0.501834         1.039944
 O         2.631589         1.726908         1.749227
 H         5.312144        -0.373588        -1.073063
 H         5.263792         1.285771        -0.459773
 H         5.217682        -0.099567         0.688744
 H         2.468998         2.242401        -0.618898
 H         1.944047         1.125483        -2.059608
 H         0.430267         0.181406         0.156482
 H         2.104532        -1.598931        -1.335552
 H         1.673280        -0.859956         2.516791
 H         3.445132        -0.773849         2.358327
 H         2.147172         2.468368         1.365948
