19
Iteration:  3985
 C         4.881756         0.251385        -0.314963
 C         3.362572         0.299124        -0.343836
 C         2.301478         1.194243        -1.004606
 C         1.458694         0.350264         0.012178
 C         2.292790        -0.837757        -0.422073
 O         2.299556        -1.720818         0.839028
 C         2.485963        -0.695412         1.847024
 C         2.499602         0.519158         1.007052
 O         2.548434         1.716041         1.805660
 H         5.231533         0.543274        -1.324747
 H         5.311460         0.849129         0.469057
 H         5.250859        -0.797501        -0.223826
 H         2.188210         2.209500        -0.727928
 H         1.993174         1.270719        -2.066938
 H         0.413213         0.117959         0.296793
 H         2.072588        -1.569291        -1.179670
 H         1.722712        -0.710835         2.648877
 H         3.466838        -0.881678         2.210367
 H         2.489095         2.410852         1.186974
