19
Iteration:  1120
 C         4.849795         0.093468        -0.436632
 C         3.323219         0.189990        -0.295652
 C         2.251729         0.886926        -1.186615
 C         1.445726         0.230927        -0.086836
 C         2.327718        -0.996982        -0.138574
 O         2.374295        -1.568948         1.175802
 C         2.578142        -0.450871         2.068033
 C         2.478056         0.627825         0.939897
 O         2.442630         1.951195         1.481485
 H         5.458479        -0.158367         0.458411
 H         5.077523        -0.598013        -1.293323
 H         5.068455         1.066835        -0.926370
 H         2.404797         2.071078        -1.151519
 H         2.211597         0.779524        -2.249689
 H         0.444673         0.050033         0.071957
 H         2.509944        -1.826988        -0.877648
 H         1.701675        -0.318512         2.783549
 H         3.581701        -0.321461         2.651932
 H         2.513221         2.509327         0.634461
