19
Iteration:   671
 C         4.834258         0.206537        -0.419192
 C         3.313302         0.151251        -0.254437
 C         2.277776         0.893209        -1.192257
 C         1.376570         0.183319        -0.102747
 C         2.367242        -1.008958        -0.085872
 O         2.361835        -1.633220         1.167834
 C         2.556475        -0.441701         2.001766
 C         2.445732         0.700476         0.956177
 O         2.511239         1.943782         1.467496
 H         5.456785        -0.008750         0.482998
 H         5.009156        -0.589240        -1.229601
 H         5.252927         1.092550        -0.817152
 H         2.378512         2.045270        -1.229285
 H         2.213579         0.531715        -2.250173
 H         0.293612         0.268630         0.086936
 H         2.362149        -1.750328        -0.958494
 H         1.738144        -0.278507         2.719542
 H         3.517446        -0.588555         2.487685
 H         2.847857         2.442999         0.683386
