19
Iteration:  1449
 C         4.786666         0.085784        -0.409644
 C         3.304726         0.172529        -0.214189
 C         2.246477         0.927431        -1.203494
 C         1.377913         0.228752        -0.082902
 C         2.412491        -1.000844        -0.136067
 O         2.517995        -1.623877         1.199426
 C         2.496162        -0.477994         2.016938
 C         2.400726         0.651933         0.938915
 O         2.563441         2.026681         1.386317
 H         4.920326        -0.772798         0.234636
 H         5.123671        -0.251617        -1.375082
 H         5.411200         0.920651        -0.033416
 H         2.230461         1.992863        -1.039019
 H         2.058841         0.713608        -2.201935
 H         0.179674         0.256831         0.047658
 H         2.494441        -1.797441        -0.841866
 H         1.538308        -0.364101         2.496552
 H         3.321107        -0.460214         2.749829
 H         2.226799         2.614208         0.652706
