19
Iteration:  2512charge 0 multiplicity 1
 C         4.853295         0.107412        -0.404767
 C         3.296790         0.249448        -0.276366
 C         2.368634         0.835006        -1.280784
 C         1.350497         0.268943        -0.147203
 C         2.315925        -0.921743        -0.175501
 O         2.355545        -1.648647         1.089217
 C         2.666982        -0.596586         1.953950
 C         2.432355         0.752231         1.013086
 O         2.487291         1.983392         1.729685
 H         5.179618         0.644840        -1.307252
 H         5.424008         0.563026         0.351440
 H         5.032788        -0.917099        -0.732376
 H         2.223658         1.878241        -1.332025
 H         2.233866         0.145876        -2.220771
 H         0.269535         0.370207        -0.203576
 H         2.052231        -1.501315        -1.002910
 H         1.991934        -0.503903         2.804217
 H         3.683676        -0.722925         2.243645
 H         2.110842         2.698907         1.095308
