19
Iteration:  3857
 C         4.798392         0.210046        -0.476932
 C         3.267984         0.291143        -0.280969
 C         2.418214         1.212343        -1.066735
 C         1.357283         0.464447        -0.158886
 C         2.270146        -0.916393        -0.320401
 O         2.422820        -1.732894         0.849733
 C         2.512125        -0.722699         1.876052
 C         2.431208         0.548568         1.088486
 O         2.509716         1.710907         1.945091
 H         4.972687        -0.157117        -1.542037
 H         5.337219         1.146607        -0.422917
 H         5.189036        -0.463321         0.269640
 H         2.738493         2.231211        -0.925034
 H         2.404994         0.883556        -2.078971
 H         0.338908         0.750071        -0.243505
 H         2.451017        -1.607595        -1.198660
 H         1.739681        -0.928139         2.643034
 H         3.499358        -0.706794         2.430805
 H         2.837212         2.489935         1.405298
