19
Iteration:   947charge 0 multiplicity 1
 C         4.825678         0.089945        -0.436209
 C         3.283894         0.218750        -0.326032
 C         2.250590         0.778876        -1.243279
 C         1.379963         0.254792        -0.180253
 C         2.334767        -1.049811        -0.091294
 O         2.556671        -1.555374         1.156104
 C         2.406524        -0.435859         2.037177
 C         2.441838         0.726503         0.969387
 O         2.594979         1.969744         1.618841
 H         5.439232        -0.386330         0.351113
 H         4.916851        -0.447284        -1.440188
 H         5.346270         1.140477        -0.525384
 H         2.230282         1.895063        -1.379065
 H         2.176750         0.340200        -2.306218
 H         0.174596         0.292579        -0.030264
 H         2.151539        -1.756264        -0.915194
 H         1.433128        -0.644168         2.525100
 H         3.293554        -0.325015         2.656164
 H         2.442412         2.611518         0.896338
