19
Iteration:   536
 C         4.856343         0.089562        -0.369981
 C         3.284097         0.169482        -0.331866
 C         2.249487         0.861247        -1.281780
 C         1.423281         0.269866        -0.164393
 C         2.369600        -1.156088        -0.099919
 O         2.383510        -1.643385         1.185700
 C         2.607534        -0.408895         1.966703
 C         2.460996         0.735697         0.995930
 O         2.434964         2.060994         1.559530
 H         5.087777        -0.819602         0.232919
 H         5.209056        -0.014193        -1.383456
 H         5.410304         0.970871         0.151543
 H         2.337153         2.023132        -1.237897
 H         2.034284         0.357197        -2.144556
 H         0.397558         0.465680        -0.187635
 H         2.318196        -1.912875        -0.916757
 H         1.957018        -0.537609         2.820691
 H         3.650645        -0.270731         2.296968
 H         2.581779         2.673498         0.848661
