19
Iteration:  1688charge 0 multiplicity 1
 C         4.768587         0.173065        -0.379019
 C         3.316124         0.267072        -0.182455
 C         2.256287         0.842165        -1.163749
 C         1.370707         0.252243        -0.061148
 C         2.378923        -1.093838        -0.162605
 O         2.475121        -1.660355         1.189738
 C         2.395277        -0.421653         1.956430
 C         2.418241         0.675331         0.908529
 O         2.667164         1.997302         1.435931
 H         5.105215        -0.803292         0.047025
 H         5.008905         0.186396        -1.542752
 H         5.257907         1.046745         0.156651
 H         2.227017         1.895766        -1.179755
 H         2.111159         0.484769        -2.203757
 H         0.247647        -0.071232        -0.104643
 H         2.445852        -1.789547        -1.099234
 H         1.538387        -0.691643         2.688824
 H         3.273388        -0.223111         2.612192
 H         2.765491         2.589939         0.605182
