19
Iteration:  1756charge 0 multiplicity 1
 C         4.795195         0.185935        -0.419235
 C         3.281590         0.209106        -0.277302
 C         2.303818         0.855513        -1.204890
 C         1.420131         0.201448        -0.182789
 C         2.321858        -0.994905        -0.153436
 O         2.309900        -1.568601         1.172792
 C         2.628363        -0.508200         2.023163
 C         2.446032         0.680964         1.066336
 O         2.533131         1.988637         1.494750
 H         5.195199        -0.466680         0.392938
 H         5.085011        -0.411644        -1.318978
 H         5.395867         1.186639        -0.404730
 H         2.475238         1.837079        -1.378014
 H         2.218099         0.270982        -2.218376
 H         0.263027        -0.004049        -0.226245
 H         2.550633        -1.787415        -0.871084
 H         2.054314        -0.543453         3.004912
 H         3.727822        -0.604564         2.334720
 H         2.276413         2.597869         0.764164
