19
Iteration:   482
 C         4.892071         0.162819        -0.430200
 C         3.286111         0.116089        -0.250684
 C         2.295265         0.805271        -1.262307
 C         1.347106         0.290755        -0.083747
 C         2.389992        -1.012922        -0.097126
 O         2.381771        -1.654453         1.218713
 C         2.437265        -0.478054         1.991482
 C         2.445242         0.703102         0.923598
 O         2.614669         2.005448         1.476460
 H         5.528869        -0.175220         0.422624
 H         5.197453        -0.233140        -1.377083
 H         5.002884         1.290615        -0.495445
 H         2.261719         1.932310        -1.159274
 H         2.118091         0.682112        -2.296715
 H         0.336553         0.005501         0.021098
 H         2.485499        -1.756304        -0.946861
 H         1.488960        -0.426931         2.533047
 H         3.268702        -0.358148         2.714199
 H         2.356278         2.719869         0.949973
