19
Iteration:  2726
 C         4.801299         0.161344        -0.358557
 C         3.281936         0.224818        -0.333299
 C         2.200559         0.933141        -1.202447
 C         1.322680         0.352495        -0.081097
 C         2.339041        -0.918867        -0.141335
 O         2.485388        -1.682987         1.022610
 C         2.515879        -0.521545         1.871187
 C         2.372213         0.675831         0.966627
 O         2.619433         1.884931         1.669073
 H         5.215318        -0.799891        -0.016436
 H         5.206202         0.245340        -1.367656
 H         5.373360         0.908728         0.189241
 H         2.189551         2.055151        -1.339277
 H         1.927958         0.567756        -2.163432
 H         0.234239         0.060172        -0.156744
 H         2.404476        -1.655728        -1.122900
 H         1.860051        -0.563123         2.749096
 H         3.473036        -0.426624         2.311572
 H         3.531998         1.839840         2.170879
