19
Iteration:  3413
 C         4.842395         0.315997        -0.391564
 C         3.271380         0.265223        -0.281663
 C         2.252414         1.122688        -1.133086
 C         1.455656         0.471463         0.014263
 C         2.303926        -0.834214        -0.339358
 O         2.357111        -1.765650         0.765177
 C         2.542772        -0.791047         1.837400
 C         2.464646         0.562165         1.081520
 O         2.550323         1.734921         1.916632
 H         5.133698        -0.549551        -1.006604
 H         5.300900         1.259885        -0.967436
 H         5.328554         0.241165         0.572242
 H         2.407331         2.158019        -1.378438
 H         2.054872         0.675426        -2.175413
 H         0.397811         0.647599         0.018906
 H         1.903850        -1.453522        -1.260475
 H         1.676548        -0.863790         2.593085
 H         3.389903        -0.838133         2.566833
 H         3.386093         2.204322         1.656758
