19
Iteration:   375charge 0 multiplicity 1
 C         4.857385         0.040880        -0.428151
 C         3.330108         0.161349        -0.279196
 C         2.339978         0.834937        -1.251772
 C         1.365262         0.218927        -0.134470
 C         2.325890        -1.022848        -0.056394
 O         2.427135        -1.549210         1.184428
 C         2.534866        -0.395099         1.966252
 C         2.427207         0.678663         0.949237
 O         2.457707         2.003419         1.526995
 H         5.366691        -0.727284         0.184150
 H         5.279929        -0.109394        -1.395200
 H         5.344386         0.899194        -0.104908
 H         2.389292         1.865571        -1.284030
 H         2.227540         0.425180        -2.270352
 H         0.248240         0.278031         0.110087
 H         2.241143        -1.864407        -0.853028
 H         1.744266        -0.245115         2.721725
 H         3.516248        -0.282672         2.451244
 H         2.414339         2.640367         0.851942
