19
Iteration:  2654charge 0 multiplicity 1
 C         4.791863         0.157284        -0.530793
 C         3.342901         0.234227        -0.220523
 C         2.299067         1.043746        -1.071885
 C         1.407748         0.229135        -0.126647
 C         2.309798        -0.957388        -0.194279
 O         2.324786        -1.661519         1.066045
 C         2.641091        -0.618447         1.983956
 C         2.499956         0.646115         1.037172
 O         2.402941         1.975999         1.500800
 H         5.205469        -0.824171        -0.849792
 H         5.153410         0.917522        -1.233797
 H         5.349569         0.258265         0.453058
 H         2.582534         2.034757        -0.961411
 H         2.263884         0.796651        -2.198223
 H         0.364738         0.108147        -0.067265
 H         2.124103        -1.584604        -0.960981
 H         1.959750        -0.650824         2.830115
 H         3.641528        -0.830657         2.436616
 H         3.289691         2.276284         1.929669
