19
Iteration:  3402
 C         4.829837         0.292125        -0.417780
 C         3.356792         0.278765        -0.348153
 C         2.283310         1.073160        -1.156010
 C         1.411499         0.522081        -0.038589
 C         2.222849        -0.877168        -0.315459
 O         2.377822        -1.749640         0.807743
 C         2.519946        -0.744534         1.821564
 C         2.523072         0.591640         1.064740
 O         2.507537         1.733393         1.966318
 H         5.302191        -0.548899        -0.953983
 H         5.141363         1.329467        -0.904623
 H         5.214165         0.261836         0.584686
 H         2.416235         2.143407        -1.130501
 H         1.908934         0.618879        -2.126711
 H         0.383573         0.425273         0.202647
 H         2.085353        -1.355552        -1.376572
 H         1.673842        -0.908203         2.558345
 H         3.543436        -0.956670         2.179802
 H         3.492679         1.958496         2.233537
