19
Iteration:  4512
 C         4.869025         0.163226        -0.439843
 C         3.363323         0.363990        -0.288584
 C         2.278445         1.280075        -1.162641
 C         1.400103         0.372123        -0.157422
 C         2.316778        -0.945617        -0.398159
 O         2.356508        -1.719356         0.931932
 C         2.519706        -0.650966         1.883561
 C         2.455681         0.582387         1.073377
 O         2.549390         1.649246         1.948406
 H         5.278535         0.714581        -1.404935
 H         5.414978         0.612298         0.378269
 H         5.287835        -0.864976        -0.483501
 H         2.472838         2.338630        -1.051365
 H         2.091316         1.097360        -2.247982
 H         0.350680         0.329148        -0.012741
 H         2.233764        -1.694460        -1.239977
 H         1.650442        -0.785095         2.534609
 H         3.451064        -0.759640         2.471534
 H         1.939859         2.487817         1.827662
