19
Iteration:  2783charge 0 multiplicity 1
 C         4.933451         0.275172        -0.535588
 C         3.379008         0.158147        -0.266399
 C         2.260274         1.129455        -1.019759
 C         1.388000         0.316862        -0.048507
 C         2.291599        -0.989721        -0.224335
 O         2.316574        -1.649185         1.031738
 C         2.508199        -0.593219         1.980688
 C         2.469151         0.511962         1.068949
 O         2.493967         1.863496         1.470677
 H         5.385172         0.208004         0.476677
 H         5.332379        -0.576718        -1.077862
 H         5.121629         1.183655        -1.068779
 H         2.386083         2.131768        -0.860475
 H         2.034826         0.810319        -2.048603
 H         0.338303         0.280948         0.195717
 H         2.162503        -1.681385        -1.019278
 H         1.768737        -0.502929         2.760730
 H         3.493812        -0.707572         2.337775
 H         3.344302         2.063648         1.774770
