19
Iteration:  3845
 C         4.771029         0.194813        -0.430839
 C         3.345693         0.265770        -0.268890
 C         2.355410         1.100449        -1.095605
 C         1.371480         0.461010        -0.138148
 C         2.313309        -0.867638        -0.383415
 O         2.430965        -1.667365         0.845234
 C         2.513302        -0.676429         1.872361
 C         2.465546         0.628625         1.031641
 O         2.543154         1.609783         1.974450
 H         5.084422        -0.487402        -1.293800
 H         5.117186         1.199752        -0.515071
 H         5.234203        -0.304564         0.446161
 H         2.313083         2.178245        -0.946846
 H         2.321182         1.022671        -2.183272
 H         0.323608         0.698641        -0.024104
 H         1.990570        -1.441642        -1.309093
 H         1.556436        -0.568340         2.440143
 H         3.395921        -0.906898         2.533013
 H         2.553691         2.584823         1.671845
