19
Iteration:  2666
 C         4.891343         0.119728        -0.474778
 C         3.297486         0.209943        -0.257330
 C         2.318339         1.072686        -1.065789
 C         1.373727         0.278236        -0.043827
 C         2.284605        -0.998062        -0.206581
 O         2.393100        -1.716980         1.002403
 C         2.594735        -0.619138         2.006713
 C         2.452638         0.615167         1.090291
 O         2.432732         2.062679         1.439869
 H         5.023334        -0.874166        -0.894648
 H         5.079138         0.823062        -1.297794
 H         5.562043         0.399300         0.376007
 H         2.088610         2.051270        -0.858375
 H         2.129486         0.733721        -2.151923
 H         0.334197         0.360513        -0.016782
 H         2.426492        -1.692880        -1.039569
 H         1.872699        -0.649782         2.805471
 H         3.644747        -0.652231         2.282824
 H         3.164585         2.175630         2.104186
