19
Iteration:  2802charge 0 multiplicity 1
 C         4.734179         0.202075        -0.479797
 C         3.296988         0.306811        -0.273668
 C         2.280252         1.015292        -1.127503
 C         1.413418         0.234797        -0.096182
 C         2.345642        -0.939495        -0.227474
 O         2.394125        -1.685754         1.014111
 C         2.515643        -0.636351         2.009886
 C         2.500114         0.610075         1.007794
 O         2.564629         1.941590         1.598974
 H         5.386851         0.298376         0.393831
 H         5.044104        -0.773707        -0.856439
 H         5.039557         0.873933        -1.246133
 H         2.261050         2.135455        -0.894247
 H         2.292917         0.853923        -2.200681
 H         0.306948         0.349990        -0.013330
 H         2.140872        -1.632592        -1.228350
 H         1.573224        -0.580354         2.594226
 H         3.392105        -0.725532         2.672130
 H         3.286802         1.935261         2.184970
