19
Iteration:  2392
 C         4.796603         0.181596        -0.349950
 C         3.354243         0.108293        -0.378126
 C         2.296846         0.894757        -1.218327
 C         1.346429         0.243714        -0.113747
 C         2.339124        -1.013033        -0.175455
 O         2.312389        -1.594506         1.135132
 C         2.655415        -0.400179         1.982420
 C         2.490096         0.737370         0.865717
 O         2.522158         1.863021         1.666425
 H         5.018233         1.111926         0.190674
 H         5.193616        -0.649623         0.260056
 H         5.185951         0.064682        -1.417400
 H         2.308925         1.958217        -1.478893
 H         2.245620         0.404086        -2.313842
 H         0.231863         0.235822         0.099418
 H         2.117750        -1.887291        -0.840985
 H         1.957971        -0.323013         2.849583
 H         3.668192        -0.581942         2.233138
 H         2.473808         2.685458         1.221986
