19
Iteration:  3022charge 0 multiplicity 1
 C         4.807069         0.125472        -0.397727
 C         3.302966         0.309643        -0.247652
 C         2.261477         1.166962        -1.035052
 C         1.355387         0.286944        -0.089844
 C         2.325331        -0.936623        -0.282967
 O         2.345586        -1.699776         0.931206
 C         2.673960        -0.667626         1.908651
 C         2.455597         0.609236         0.994529
 O         2.588065         1.909336         1.630538
 H         5.064158        -0.806018        -0.889080
 H         5.165272         0.942679        -0.964019
 H         5.423222         0.136142         0.481858
 H         2.178251         2.163785        -0.822593
 H         2.240797         0.957941        -2.094309
 H         0.305186         0.192824         0.049561
 H         2.154284        -1.640276        -1.118052
 H         2.026414        -0.727310         2.732312
 H         3.656485        -0.895879         2.303006
 H         1.770245         1.944252         2.102743
