19
Iteration:  1530charge 0 multiplicity 1
 C         4.804517         0.218822        -0.406366
 C         3.328226         0.189869        -0.224642
 C         2.287964         0.769957        -1.222529
 C         1.336981         0.166854        -0.197669
 C         2.329389        -1.025574        -0.103285
 O         2.348785        -1.611680         1.136459
 C         2.578911        -0.375376         2.014199
 C         2.450430         0.698298         0.993283
 O         2.553397         1.982756         1.538438
 H         5.345528        -0.518340         0.305919
 H         5.082074        -0.149911        -1.443428
 H         5.348147         1.195393        -0.164136
 H         2.287811         1.864319        -1.508639
 H         2.257872         0.259246        -2.092495
 H         0.289896         0.083140        -0.252995
 H         2.326944        -1.713210        -0.993594
 H         1.947730        -0.161443         2.876987
 H         3.522325        -0.764325         2.358034
 H         2.854432         2.602279         0.863272
