19
Iteration:  3245charge 0 multiplicity 1
 C         4.857765         0.379508        -0.454767
 C         3.340039         0.228496        -0.357222
 C         2.278452         1.133312        -1.041558
 C         1.397848         0.348270         0.071234
 C         2.196955        -0.970802        -0.298384
 O         2.332336        -1.709040         0.851322
 C         2.549252        -0.743206         1.897980
 C         2.534200         0.560934         0.997576
 O         2.606379         1.747669         1.770459
 H         5.142113         1.446804        -0.583065
 H         5.428721         0.212194         0.494685
 H         5.333056        -0.316940        -1.198765
 H         2.510426         2.220567        -0.820472
 H         2.070872         0.913744        -2.068527
 H         0.245862         0.561292         0.293275
 H         1.863190        -1.408659        -1.216371
 H         1.737449        -0.675533         2.669261
 H         3.536989        -0.986450         2.381292
 H         2.360275         2.507871         1.295128
