19
Iteration:   198charge 0 multiplicity 1
 C         4.724918         0.065022        -0.442659
 C         3.290870         0.151939        -0.312355
 C         2.285954         0.848736        -1.235328
 C         1.429363         0.272779        -0.075093
 C         2.426842        -1.093592        -0.103220
 O         2.520370        -1.588684         1.191169
 C         2.419570        -0.414368         2.026132
 C         2.447737         0.685493         0.960575
 O         2.529069         2.082619         1.403587
 H         5.259541        -0.558996         0.229430
 H         4.955328        -0.259509        -1.435418
 H         5.089254         1.066792        -0.368004
 H         2.297078         1.882715        -1.344675
 H         2.159678         0.356904        -2.204979
 H         0.353337         0.359881         0.134143
 H         2.101885        -1.872625        -0.835057
 H         1.461483        -0.417553         2.546755
 H         3.194543        -0.358150         2.785095
 H         3.139484         2.058960         2.130086
