19
Iteration:  2962charge 0 multiplicity 1
 C         4.747976         0.242481        -0.406235
 C         3.278727         0.356100        -0.199937
 C         2.257840         0.974965        -1.196830
 C         1.340693         0.375031        -0.067716
 C         2.377962        -0.969627        -0.281307
 O         2.435300        -1.722379         0.974821
 C         2.504816        -0.627905         1.904462
 C         2.409496         0.627958         0.998353
 O         2.681950         1.875605         1.679986
 H         4.903776         0.404781        -1.503058
 H         5.386598         1.058198         0.053755
 H         4.930321        -0.804723        -0.010421
 H         2.294210         2.167527        -1.271228
 H         2.170014         0.384953        -2.132816
 H         0.214649         0.314611         0.142278
 H         2.237923        -1.572180        -1.163699
 H         1.522551        -0.602611         2.460833
 H         3.432249        -0.774017         2.476214
 H         3.126821         1.573005         2.433814
