19
Iteration:  2401
 C         4.800738         0.219661        -0.350471
 C         3.316582         0.102620        -0.394587
 C         2.261951         0.898374        -1.259671
 C         1.430628         0.246467        -0.141973
 C         2.278768        -1.025464        -0.107787
 O         2.324488        -1.609885         1.166946
 C         2.618868        -0.398647         1.903328
 C         2.472529         0.693307         0.899264
 O         2.563439         1.851402         1.667376
 H         5.205553         1.220539        -0.011409
 H         5.019669        -0.444850         0.466658
 H         5.457806        -0.005942        -1.249643
 H         2.417613         1.975464        -1.136696
 H         2.027742         0.467589        -2.453250
 H         0.293531         0.196659         0.077254
 H         2.240505        -1.648715        -0.939730
 H         1.964095        -0.340704         2.774093
 H         3.607399        -0.437012         2.334265
 H         2.496704         2.656876         1.189848
