19
Iteration:  4062charge 0 multiplicity 1
 C         4.878750         0.209196        -0.362534
 C         3.379513         0.344666        -0.333475
 C         2.183895         1.229308        -1.163431
 C         1.510790         0.425948        -0.058129
 C         2.231220        -0.848308        -0.428368
 O         2.401410        -1.745837         0.850548
 C         2.447879        -0.649489         1.853701
 C         2.554737         0.578056         1.044907
 O         2.552049         1.609660         1.991227
 H         5.312553        -0.587706        -1.020875
 H         5.333614         1.089649        -0.732370
 H         5.188219        -0.057296         0.642672
 H         2.498251         2.208423        -1.058107
 H         1.946702         0.828634        -2.168982
 H         0.428533         0.300587         0.095250
 H         1.951646        -1.470151        -1.317727
 H         1.521123        -0.828368         2.378946
 H         3.192463        -0.873008         2.552275
 H         2.237222         2.434108         1.507565
