19
Iteration:  3020
 C         4.797802         0.132776        -0.385021
 C         3.319512         0.302445        -0.253690
 C         2.264144         1.177547        -1.013189
 C         1.360696         0.298159        -0.097631
 C         2.319595        -0.942051        -0.269954
 O         2.346743        -1.714766         0.936230
 C         2.668641        -0.648451         1.899687
 C         2.471082         0.592362         0.987226
 O         2.582710         1.905281         1.611107
 H         4.993537        -0.820074        -0.927158
 H         5.187474         0.979928        -0.975813
 H         5.414820         0.111221         0.488875
 H         2.097007         2.181856        -0.822259
 H         2.200188         0.995252        -2.068283
 H         0.337083         0.252126         0.077587
 H         2.168694        -1.652864        -1.152336
 H         2.046356        -0.704951         2.748119
 H         3.645500        -0.911277         2.284017
 H         1.725719         1.915462         2.148940
