19
Iteration:  4227charge 0 multiplicity 1
 C         4.904430         0.263942        -0.388725
 C         3.355151         0.194216        -0.316745
 C         2.371842         1.184833        -0.939583
 C         1.387979         0.400165         0.032478
 C         2.254832        -0.854501        -0.317553
 O         2.340805        -1.694194         0.779244
 C         2.505811        -0.785512         1.870112
 C         2.507088         0.538866         1.085450
 O         2.469518         1.783825         1.699406
 H         5.286169         0.868909        -1.267666
 H         5.352679         0.681822         0.470583
 H         5.113576        -0.761292        -0.522782
 H         2.597577         2.223054        -0.752903
 H         2.026160         1.018091        -2.000496
 H         0.324232         0.436678         0.315717
 H         2.129394        -1.535299        -1.306258
 H         1.598437        -0.808276         2.488546
 H         3.375378        -1.030359         2.482582
 H         2.883030         2.506483         1.101865
