19
Iteration:  4441
 C         4.885759         0.293742        -0.263075
 C         3.261697         0.221782        -0.266459
 C         2.230039         1.324579        -0.937729
 C         1.346394         0.341848        -0.032018
 C         2.306403        -0.926560        -0.418278
 O         2.373704        -1.735839         0.808608
 C         2.469938        -0.757317         1.882917
 C         2.440597         0.496606         1.004123
 O         2.737847         1.745613         1.651285
 H         5.379557         0.468922        -1.223862
 H         5.285149         1.112558         0.503482
 H         5.414658        -0.613873         0.166687
 H         2.407360         2.401583        -0.704047
 H         2.148781         1.430005        -2.001789
 H         0.226896         0.178178         0.155194
 H         2.145798        -1.545411        -1.261737
 H         1.571616        -0.628751         2.512257
 H         3.384316        -1.036134         2.413616
 H         2.067596         2.472700         1.413852
