19
Iteration:  4938
 C         4.765586         0.293849        -0.464007
 C         3.220008         0.346026        -0.251650
 C         2.298394         1.117407        -1.092291
 C         1.289143         0.363514        -0.149724
 C         2.341640        -0.846871        -0.335362
 O         2.459663        -1.660516         0.841279
 C         2.498122        -0.702101         1.858096
 C         2.473899         0.552222         1.081454
 O         2.678562         1.619477         1.959931
 H         4.959059        -0.275549        -1.368308
 H         5.058541         1.306669        -0.488502
 H         5.349835         0.000050         0.434560
 H         2.332341         2.234567        -1.234084
 H         2.097639         0.709094        -2.143537
 H         0.214954         0.206277        -0.132525
 H         2.352724        -1.557219        -1.213633
 H         1.596091        -0.748126         2.531842
 H         3.383497        -0.771384         2.467735
 H         2.907535         2.400437         1.550758
