19
Iteration:  1726
 C         4.860494         0.247426        -0.340106
 C         3.304076         0.150231        -0.360712
 C         2.254071         0.804258        -1.273923
 C         1.418570         0.258804        -0.103510
 C         2.193152        -1.077209        -0.121328
 O         2.470584        -1.608954         1.192518
 C         2.467654        -0.386165         1.949703
 C         2.485469         0.702583         0.943868
 O         2.601483         1.909239         1.570204
 H         5.257811        -0.595768         0.215024
 H         5.229289         0.129030        -1.300628
 H         5.320441         1.140637         0.019232
 H         2.442430         1.873808        -1.494219
 H         2.023916         0.236233        -2.250890
 H         0.367189         0.178535         0.098639
 H         2.088018        -1.776389        -0.891739
 H         1.589030        -0.324379         2.566931
 H         3.408731        -0.334386         2.524501
 H         2.423286         2.613375         0.962622
