19
Iteration:  4609
 C         4.812721         0.386971        -0.311314
 C         3.330770         0.347043        -0.333688
 C         2.259187         1.130424        -1.170417
 C         1.393586         0.402791        -0.139869
 C         2.202834        -0.909603        -0.314439
 O         2.322099        -1.746731         0.791541
 C         2.599466        -0.721071         1.859866
 C         2.428334         0.519219         1.086937
 O         2.635632         1.728146         1.882863
 H         5.313392        -0.367594        -1.027714
 H         5.287693         1.335004        -0.354764
 H         5.133015         0.040412         0.671636
 H         2.306041         2.169333        -1.149191
 H         2.024102         0.676688        -2.124681
 H         0.386135         0.688971        -0.029592
 H         2.186867        -1.479419        -1.251929
 H         1.827013        -0.941378         2.596429
 H         3.568327        -0.867951         2.290446
 H         3.415155         1.516272         2.432340
