19
Iteration:  3772
 C         4.839625         0.273992        -0.319432
 C         3.357042         0.190341        -0.326023
 C         2.354973         1.292779        -0.932179
 C         1.370954         0.443557        -0.114852
 C         2.203490        -0.885898        -0.330501
 O         2.336503        -1.717953         0.815775
 C         2.557497        -0.774169         1.917039
 C         2.425692         0.489389         1.003498
 O         2.634877         1.682484         1.722801
 H         5.248200        -0.632934        -0.785836
 H         5.084976         1.228657        -0.861705
 H         5.204933         0.380084         0.706137
 H         2.547081         2.336445        -0.474131
 H         2.316653         1.417451        -2.005624
 H         0.306766         0.475483        -0.106883
 H         2.037183        -1.488713        -1.268714
 H         1.826656        -0.930728         2.675086
 H         3.558073        -0.639061         2.289613
 H         2.118981         2.390500         1.413877
