19
Iteration:  2829charge 0 multiplicity 1
 C         4.819893         0.080519        -0.390645
 C         3.314466         0.269640        -0.359413
 C         2.204288         0.926184        -1.204100
 C         1.351820         0.401654        -0.023615
 C         2.289101        -0.928128        -0.257538
 O         2.565829        -1.606793         0.963688
 C         2.512735        -0.603028         1.938904
 C         2.411090         0.693826         1.013632
 O         2.554838         1.879677         1.715989
 H         5.375392         0.497680         0.465539
 H         5.179536        -0.970915        -0.468066
 H         5.074581         0.569225        -1.390882
 H         2.233393         1.997906        -1.267703
 H         2.034965         0.318636        -2.114254
 H         0.266044         0.456278        -0.115020
 H         2.024189        -1.437283        -1.062416
 H         1.594456        -0.755075         2.498055
 H         3.398994        -0.449181         2.547446
 H         3.151563         1.671301         2.398152
