19
Iteration:  2606
 C         4.784758         0.250770        -0.380357
 C         3.300047         0.232831        -0.339756
 C         2.277104         0.845362        -1.271602
 C         1.397380         0.268622        -0.039428
 C         2.294920        -0.949268        -0.216838
 O         2.421609        -1.675988         1.035270
 C         2.479399        -0.549628         1.946731
 C         2.450169         0.630533         1.007963
 O         2.616878         1.966407         1.710406
 H         5.185580        -0.320577        -1.293980
 H         5.178820         1.287751        -0.575645
 H         5.265664        -0.406825         0.386984
 H         2.039410         2.021304        -1.280501
 H         2.257913         0.381165        -2.259536
 H         0.244646         0.449501        -0.030177
 H         2.206114        -1.695774        -1.077050
 H         1.615629        -0.508076         2.685294
 H         3.384576        -0.710176         2.677130
 H         3.301366         2.449929         1.335968
