19
Iteration:  3664charge 0 multiplicity 1
 C         4.829158         0.196614        -0.421352
 C         3.387917         0.325513        -0.161626
 C         2.235441         1.212006        -1.010878
 C         1.414145         0.370509        -0.023324
 C         2.348908        -0.838901        -0.328276
 O         2.289812        -1.799258         0.736282
 C         2.477147        -0.788460         1.938810
 C         2.493421         0.547942         1.097408
 O         2.603917         1.833466         1.730629
 H         5.240393        -0.107527        -1.324059
 H         5.386180         1.141318        -0.290424
 H         5.211808        -0.480193         0.274378
 H         2.311842         2.262838        -0.788102
 H         2.067253         1.153253        -2.082438
 H         0.343895         0.409379        -0.101942
 H         2.308642        -1.357485        -1.326818
 H         1.705460        -0.851946         2.721801
 H         3.441651        -1.089649         2.335225
 H         2.549024         2.408003         0.999465
