19
Iteration:   382charge 0 multiplicity 1
 C         4.866236         0.050096        -0.391509
 C         3.288803         0.209840        -0.317694
 C         2.316055         0.814816        -1.330241
 C         1.394575         0.250648        -0.132710
 C         2.368926        -1.032367        -0.103385
 O         2.392851        -1.562635         1.250514
 C         2.578017        -0.402370         1.989357
 C         2.407336         0.680405         0.952809
 O         2.440513         1.962990         1.540964
 H         5.181292        -0.818442         0.198562
 H         5.129605        -0.229781        -1.441516
 H         5.451482         1.065460        -0.126082
 H         2.425341         1.978135        -1.188183
 H         2.227511         0.340465        -2.323305
 H         0.399908         0.619137        -0.024790
 H         2.323371        -1.834435        -0.833323
 H         1.851802        -0.360517         2.816964
 H         3.626390        -0.288695         2.385746
 H         2.504756         2.616433         0.855071
