19
Iteration:  1263
 C         4.844424         0.085856        -0.452995
 C         3.356734         0.133570        -0.320296
 C         2.292421         0.812226        -1.227109
 C         1.373717         0.210812        -0.108604
 C         2.329573        -0.988446        -0.113186
 O         2.356434        -1.564471         1.180695
 C         2.661492        -0.397494         2.034423
 C         2.424079         0.704938         0.984403
 O         2.400303         1.984877         1.499458
 H         5.241648        -0.888941        -0.153815
 H         5.314588         0.356104        -1.446842
 H         5.280776         0.990189         0.155357
 H         2.573563         2.004272        -1.140365
 H         2.384760         0.360284        -2.157180
 H         0.359339         0.096566         0.042961
 H         2.301903        -1.793266        -0.756334
 H         1.873893        -0.500466         2.784384
 H         3.706736        -0.446915         2.385467
 H         2.555918         2.706108         0.823409
