19
Iteration:   268charge 0 multiplicity 1
 C         4.900224         0.161723        -0.324449
 C         3.345652         0.177074        -0.289144
 C         2.238848         0.813218        -1.279872
 C         1.362918         0.248081        -0.111078
 C         2.248669        -1.077815        -0.064415
 O         2.341492        -1.553194         1.180038
 C         2.634045        -0.454051         1.983447
 C         2.434798         0.725866         0.952057
 O         2.491540         1.964273         1.453855
 H         5.363640        -0.293421         0.643720
 H         5.175179        -0.471697        -1.226836
 H         5.371449         1.144022        -0.488840
 H         2.315857         1.952991        -1.526902
 H         2.394472         0.161019        -2.190466
 H         0.256508         0.425302        -0.106145
 H         2.167171        -1.910196        -0.806027
 H         2.068470        -0.451480         2.928022
 H         3.693524        -0.458029         2.283537
 H         2.973388         2.544597         0.928225
