19
Iteration:  4903charge 0 multiplicity 1
 C         4.854454         0.139890        -0.401937
 C         3.332657         0.351494        -0.268973
 C         2.238165         1.219590        -0.945792
 C         1.289469         0.305147        -0.020186
 C         2.255166        -0.864898        -0.366726
 O         2.481572        -1.681592         0.784644
 C         2.589859        -0.750183         1.847052
 C         2.506076         0.537669         1.063211
 O         2.566249         1.798706         1.784509
 H         5.348039        -0.039645        -1.404494
 H         5.298245         1.081856        -0.161823
 H         5.189009        -0.647481         0.263578
 H         2.300721         2.273655        -0.700736
 H         1.957818         1.015774        -2.019283
 H         0.227005         0.340624         0.033005
 H         2.085723        -1.470508        -1.260349
 H         1.704402        -0.796878         2.465140
 H         3.482122        -0.931353         2.440495
 H         1.960542         2.376830         1.332520
