19
Iteration:  4044charge 0 multiplicity 1
 C         4.861715         0.143114        -0.437608
 C         3.370514         0.345490        -0.295289
 C         2.255652         1.190270        -1.090552
 C         1.380679         0.402653        -0.086756
 C         2.371492        -0.864476        -0.319722
 O         2.407802        -1.663516         0.759876
 C         2.433722        -0.751602         1.879904
 C         2.527663         0.600652         1.058650
 O         2.499029         1.669865         1.967576
 H         5.127782        -0.509197        -1.330148
 H         5.427632         1.082643        -0.666632
 H         5.281534        -0.341825         0.440252
 H         2.052658         2.272821        -0.884136
 H         2.135559         1.003127        -2.179022
 H         0.323151         0.439550         0.154866
 H         2.370755        -1.503397        -1.256470
 H         1.467750        -0.616417         2.423441
 H         3.286208        -0.916794         2.622116
 H         2.702843         2.532571         1.510681
