19
Iteration:  2619charge 0 multiplicity 1
 C         4.917552         0.226472        -0.459183
 C         3.334242         0.213770        -0.320508
 C         2.228976         0.892936        -1.237564
 C         1.378383         0.315588        -0.155186
 C         2.238519        -1.001618        -0.180621
 O         2.372099        -1.668757         1.087096
 C         2.546223        -0.564632         1.970230
 C         2.505457         0.708432         0.964075
 O         2.514508         1.890278         1.735484
 H         5.249090        -0.506006        -1.289438
 H         5.282005         1.270251        -0.655280
 H         5.348382         0.076700         0.582229
 H         2.304801         2.056198        -1.261226
 H         2.097527         0.501693        -2.297482
 H         0.263533         0.227602         0.023770
 H         1.958070        -1.620689        -0.931456
 H         1.651835        -0.566888         2.622122
 H         3.560665        -0.518729         2.508868
 H         3.401631         2.386194         1.540745
