19
Iteration:  4057
 C         4.891060         0.196116        -0.390854
 C         3.368810         0.341830        -0.300718
 C         2.161411         1.211635        -1.194278
 C         1.531424         0.361798        -0.084270
 C         2.241068        -0.814146        -0.415736
 O         2.418116        -1.697345         0.873557
 C         2.404169        -0.697700         1.839196
 C         2.598090         0.562086         1.031567
 O         2.524006         1.632534         2.002340
 H         5.076242        -0.634220        -1.065878
 H         5.465507         1.158744        -0.649047
 H         5.223994        -0.136933         0.639644
 H         2.491297         2.324039        -0.955699
 H         1.884883         1.009508        -2.237301
 H         0.410892         0.450232         0.159663
 H         1.987686        -1.379021        -1.288021
 H         1.468107        -0.808931         2.469307
 H         3.307446        -1.007714         2.512201
 H         2.364048         2.458720         1.559632
