19
Iteration:   735
 C         4.806843         0.097312        -0.366237
 C         3.311723         0.155998        -0.338679
 C         2.192731         0.841462        -1.299425
 C         1.408898         0.242860        -0.127185
 C         2.382477        -0.932692        -0.123827
 O         2.479325        -1.604202         1.150510
 C         2.550318        -0.372099         2.063170
 C         2.406103         0.630835         1.003254
 O         2.557272         1.944021         1.535201
 H         5.075525        -0.762975         0.363993
 H         5.210817        -0.211991        -1.399857
 H         5.251389         1.018935        -0.016984
 H         2.385960         1.952104        -1.646556
 H         1.992649         0.371289        -2.198118
 H         0.365218         0.233759        -0.212756
 H         2.240481        -1.622196        -1.055108
 H         1.701704        -0.483268         2.750332
 H         3.527994        -0.284087         2.594582
 H         2.060505         2.733578         1.097241
