19
Iteration:  4158
 C         4.824431         0.227993        -0.352615
 C         3.261408         0.355771        -0.260416
 C         2.338744         1.110841        -1.149365
 C         1.399233         0.470518        -0.105881
 C         2.248316        -0.846085        -0.312974
 O         2.416327        -1.705752         0.794236
 C         2.492215        -0.767230         1.829946
 C         2.492601         0.550836         1.035809
 O         2.585713         1.696727         1.943417
 H         5.178042        -0.051509        -1.359384
 H         5.351348         1.148446        -0.099827
 H         5.059874        -0.656176         0.287744
 H         2.522384         2.213475        -0.962939
 H         2.254190         0.760279        -2.168897
 H         0.273677         0.474566         0.040182
 H         2.274270        -1.455713        -1.194281
 H         1.565374        -0.959963         2.429438
 H         3.396457        -0.872371         2.464207
 H         2.510721         2.650635         1.524249
