19
Iteration:   368charge 0 multiplicity 1
 C         4.847158         0.034971        -0.444636
 C         3.380840         0.098443        -0.248725
 C         2.332989         0.833530        -1.155846
 C         1.368987         0.203741        -0.120265
 C         2.270826        -1.011990        -0.109126
 O         2.461119        -1.574106         1.153177
 C         2.498827        -0.344785         2.003794
 C         2.456812         0.731494         0.923712
 O         2.479814         2.015872         1.503366
 H         5.319132        -0.710276         0.223203
 H         5.199051        -0.024864        -1.529852
 H         5.252822         1.009831        -0.014574
 H         2.325213         1.964303        -1.409188
 H         2.267559         0.475610        -2.194881
 H         0.320331        -0.123556        -0.004593
 H         2.163907        -1.773912        -0.826313
 H         1.613608        -0.323401         2.663339
 H         3.402928        -0.415695         2.608850
 H         2.306214         2.658195         0.772895
