19
Iteration:  2517charge 0 multiplicity 1
 C         4.861847         0.145504        -0.405899
 C         3.336418         0.263095        -0.270612
 C         2.328793         0.834386        -1.242093
 C         1.385147         0.300419        -0.119200
 C         2.274905        -0.939652        -0.179933
 O         2.345217        -1.633070         1.066783
 C         2.687605        -0.613576         1.969128
 C         2.410789         0.721534         0.966447
 O         2.490929         1.982606         1.694736
 H         5.140561         0.572000        -1.378653
 H         5.480491         0.428115         0.527256
 H         4.917271        -0.959597        -0.541849
 H         2.251428         1.971960        -1.601893
 H         2.425391         0.288244        -2.142579
 H         0.271134         0.246169        -0.156320
 H         1.939572        -1.706313        -1.040473
 H         2.056415        -0.596215         2.890043
 H         3.734392        -0.646530         2.460081
 H         2.079488         2.620711         1.168855
