19
Iteration:  1969
 C         4.866201         0.051740        -0.441887
 C         3.322752         0.174538        -0.293077
 C         2.264198         0.833232        -1.230521
 C         1.365553         0.278476        -0.078228
 C         2.320909        -0.971755        -0.107481
 O         2.514444        -1.606936         1.156757
 C         2.511336        -0.449563         1.971285
 C         2.458467         0.727757         0.972235
 O         2.522092         1.998657         1.560131
 H         5.247950        -0.796849         0.157322
 H         5.155533        -0.210077        -1.530954
 H         5.403323         0.970926        -0.088480
 H         1.960896         1.803441        -1.410196
 H         2.180568         0.231678        -2.212996
 H         0.313546         0.196378        -0.143654
 H         2.120506        -1.633260        -1.045988
 H         1.528409        -0.484807         2.455734
 H         3.272922        -0.395771         2.793167
 H         2.029894         2.668991         1.031322
