19
Iteration:   107
 C         4.823844         0.105930        -0.361807
 C         3.308619         0.096720        -0.308553
 C         2.238240         0.824656        -1.117942
 C         1.315438         0.221448        -0.043671
 C         2.301394        -0.961543        -0.131407
 O         2.528925        -1.550386         1.150651
 C         2.447674        -0.394419         2.010480
 C         2.473195         0.640372         0.919622
 O         2.573134         2.003202         1.279095
 H         5.311808        -0.487572         0.351222
 H         5.391899        -0.117532        -1.308177
 H         5.120380         1.192684        -0.050579
 H         2.300613         2.005533        -1.234331
 H         2.020395         0.376817        -2.073305
 H         0.231928         0.246099         0.110929
 H         2.180471        -1.780400        -0.819167
 H         1.600030        -0.420476         2.744222
 H         3.357159        -0.482511         2.653971
 H         3.054078         2.174037         2.110293
