19
Iteration:  3119charge 0 multiplicity 1
 C         4.732741         0.253864        -0.432961
 C         3.327609         0.395246        -0.168925
 C         2.293776         1.142612        -1.002953
 C         1.387574         0.285502        -0.075112
 C         2.270990        -0.944462        -0.279169
 O         2.327588        -1.775299         0.881712
 C         2.602169        -0.732354         1.925311
 C         2.502747         0.538033         1.086428
 O         2.566764         1.887858         1.612201
 H         5.393710        -0.011178         0.425508
 H         4.849531        -0.487731        -1.272657
 H         5.101542         1.215317        -0.788611
 H         2.180874         2.224779        -0.898700
 H         2.393046         0.863990        -2.072782
 H         0.382000         0.347553        -0.063919
 H         2.207410        -1.495129        -1.274149
 H         1.842398        -0.841406         2.716694
 H         3.648673        -0.919074         2.285088
 H         3.373712         2.381273         1.386510
