19
Iteration:  1946
 C         4.799122         0.133889        -0.390492
 C         3.316292         0.098075        -0.414224
 C         2.229400         0.830112        -1.316726
 C         1.398509         0.312059        -0.103639
 C         2.324209        -1.028756        -0.141989
 O         2.551013        -1.546164         1.161598
 C         2.446089        -0.395736         2.054803
 C         2.437193         0.723114         0.961533
 O         2.563227         1.923641         1.590915
 H         4.940513        -0.917414         0.035461
 H         5.396191         0.076770        -1.357714
 H         5.261064         0.808932         0.420413
 H         2.244773         1.851225        -1.462268
 H         1.751009         0.319816        -2.266094
 H         0.446734         0.076729         0.240151
 H         2.378493        -1.861181        -0.933849
 H         1.568936        -0.587108         2.676993
 H         3.342560        -0.272892         2.773260
 H         2.539778         2.744309         1.018157
