19
Iteration:  3970
 C         4.905917         0.242532        -0.288352
 C         3.340050         0.293016        -0.295790
 C         2.145125         1.176327        -1.110154
 C         1.382999         0.306798        -0.087246
 C         2.311676        -0.911255        -0.333615
 O         2.278170        -1.650763         0.776960
 C         2.546308        -0.722887         1.829243
 C         2.513810         0.607019         1.039327
 O         2.668660         1.685720         1.864511
 H         5.458421         0.789801        -1.025818
 H         5.195207         0.847742         0.627054
 H         5.303005        -0.785828        -0.224443
 H         2.278903         2.298936        -0.979952
 H         2.140040         0.812027        -2.102934
 H         0.265071         0.429119         0.116572
 H         2.207293        -1.398757        -1.293274
 H         1.708287        -0.779951         2.541670
 H         3.430031        -0.888256         2.480782
 H         2.216675         2.552521         1.526456
