19
Iteration:  2727
 C         4.799535         0.164467        -0.355033
 C         3.288152         0.225971        -0.334089
 C         2.208329         0.929441        -1.200427
 C         1.319425         0.354680        -0.077201
 C         2.338050        -0.919268        -0.151011
 O         2.475740        -1.681654         1.021817
 C         2.520774        -0.523523         1.877631
 C         2.371323         0.681020         0.970540
 O         2.618188         1.879177         1.664028
 H         5.218100        -0.815711        -0.016705
 H         5.183366         0.238610        -1.377858
 H         5.369279         0.964888         0.148702
 H         2.172736         2.014110        -1.338632
 H         1.936275         0.561145        -2.177561
 H         0.244519         0.065298        -0.157665
 H         2.420868        -1.604966        -1.078830
 H         1.862392        -0.598680         2.754319
 H         3.513055        -0.449131         2.329762
 H         3.525746         1.859849         2.150299
