19
Iteration:  3199charge 0 multiplicity 1
 C         4.756946         0.180238        -0.476909
 C         3.339309         0.348650        -0.165792
 C         2.217226         1.128015        -1.040044
 C         1.358743         0.323832        -0.077563
 C         2.323483        -0.864491        -0.306885
 O         2.475196        -1.695343         0.852758
 C         2.506738        -0.690415         1.862850
 C         2.347611         0.529057         1.098653
 O         2.732592         1.852114         1.723053
 H         5.520190         0.706005         0.108535
 H         5.086686        -0.875897        -0.333242
 H         4.935389         0.301433        -1.618299
 H         2.175272         2.188397        -0.823655
 H         2.169166         0.808051        -2.100299
 H         0.182349         0.165641        -0.042248
 H         2.424354        -1.463361        -1.211615
 H         1.723614        -0.986942         2.611376
 H         3.485572        -0.744469         2.455225
 H         1.883158         2.281774         1.983625
