19
Iteration:  4967charge 0 multiplicity 1
 C         4.898106         0.444318        -0.453839
 C         3.358355         0.348028        -0.348022
 C         2.238735         1.126500        -1.092931
 C         1.454731         0.390575         0.014028
 C         2.252797        -0.959613        -0.318423
 O         2.268850        -1.825089         0.842119
 C         2.459018        -0.784303         1.836735
 C         2.575573         0.590134         1.048696
 O         2.583650         1.715299         1.920087
 H         5.286926        -0.139546        -1.387790
 H         5.164728         1.541399        -0.623857
 H         5.498249         0.309731         0.437115
 H         2.244235         2.191802        -1.216864
 H         1.854037         0.797788        -2.070413
 H         0.407808         0.277668         0.249457
 H         2.016767        -1.577969        -1.179871
 H         1.609964        -0.656311         2.464512
 H         3.358583        -0.925051         2.479637
 H         3.169463         2.400179         1.398080
