19
Iteration:   502
 C         4.808081         0.194893        -0.449912
 C         3.304687         0.234552        -0.299330
 C         2.349376         0.797784        -1.253668
 C         1.467261         0.207210        -0.164265
 C         2.266156        -1.050292        -0.108536
 O         2.348918        -1.575021         1.203312
 C         2.532092        -0.376199         2.020687
 C         2.505898         0.640141         1.009589
 O         2.507669         1.919399         1.563417
 H         5.201178        -0.487498         0.311432
 H         5.186446        -0.218912        -1.378301
 H         5.363338         1.246385        -0.294289
 H         2.238470         1.840251        -1.809815
 H         2.286068         0.280351        -2.173150
 H         0.422377         0.370906        -0.243690
 H         2.078738        -1.766217        -0.864220
 H         1.754062        -0.414287         2.769509
 H         3.520068        -0.386831         2.526809
 H         2.539999         2.594344         0.819815
