19
Iteration:  1514
 C         4.833395         0.181176        -0.385190
 C         3.302782         0.174671        -0.321193
 C         2.285275         0.779485        -1.348316
 C         1.395740         0.159686        -0.189628
 C         2.332037        -1.035103        -0.137745
 O         2.312301        -1.545611         1.217302
 C         2.624396        -0.504883         2.035408
 C         2.440115         0.716945         0.952541
 O         2.550150         2.021655         1.611043
 H         5.248605        -0.595680         0.175025
 H         5.207872         0.151773        -1.381239
 H         5.168632         1.129491        -0.010946
 H         2.250894         1.846576        -1.315545
 H         2.226095         0.297406        -2.447594
 H         0.187292         0.103363        -0.086348
 H         2.281120        -1.900926        -0.793091
 H         1.864032        -0.537547         2.865874
 H         3.608967        -0.150981         2.430698
 H         2.690219         2.723631         1.021009
