19
Iteration:  4156
 C         4.840197         0.219865        -0.350273
 C         3.265311         0.361761        -0.280692
 C         2.328450         1.104586        -1.148938
 C         1.383825         0.465973        -0.096959
 C         2.240566        -0.842135        -0.315967
 O         2.409575        -1.706147         0.789574
 C         2.489206        -0.772535         1.839411
 C         2.514617         0.554640         1.036338
 O         2.582132         1.694232         1.929711
 H         5.276358        -0.037976        -1.302195
 H         5.298384         1.223570        -0.131297
 H         5.062203        -0.628992         0.357284
 H         2.545430         2.170482        -0.883814
 H         2.283633         0.811223        -2.185367
 H         0.290884         0.512223         0.111003
 H         2.292363        -1.429165        -1.180804
 H         1.564679        -0.926567         2.451604
 H         3.403632        -0.897706         2.483595
 H         2.470539         2.625450         1.550913
