19
Iteration:  2591
 C         4.752748         0.211253        -0.386303
 C         3.229230         0.257024        -0.204278
 C         2.233395         0.922861        -1.181984
 C         1.378431         0.293638        -0.109478
 C         2.354757        -0.976974        -0.193344
 O         2.460426        -1.651664         1.006904
 C         2.450695        -0.553273         1.974361
 C         2.491950         0.679422         1.019276
 O         2.661678         1.884023         1.587126
 H         4.970074        -0.034421        -1.372530
 H         5.135675         1.154230        -0.049742
 H         5.121472        -0.422219         0.377295
 H         2.461002         1.895816        -1.464884
 H         2.041304         0.405369        -2.131800
 H         0.382041         0.126735         0.128214
 H         2.307558        -1.684501        -1.148156
 H         1.540562        -0.680440         2.570897
 H         3.301466        -0.546704         2.615334
 H         3.194356         2.408012         0.930275
