19
Iteration:  1855
 C         4.808371         0.205121        -0.443951
 C         3.277834         0.178669        -0.298005
 C         2.327668         0.816885        -1.300884
 C         1.414544         0.222893        -0.148809
 C         2.264605        -1.008070        -0.115515
 O         2.455061        -1.604047         1.199393
 C         2.450066        -0.439350         2.010803
 C         2.464265         0.653205         0.941829
 O         2.615239         1.949805         1.580124
 H         5.217875        -0.343987         0.487762
 H         5.297599        -0.271423        -1.316254
 H         5.174379         1.317056        -0.254275
 H         2.395693         1.887104        -1.357997
 H         1.988940         0.350824        -2.300347
 H         0.303563         0.283947         0.102781
 H         2.172531        -1.717833        -0.874989
 H         1.693512        -0.539538         2.838615
 H         3.489158        -0.331925         2.467064
 H         2.160549         2.625637         0.968765
