19
Iteration:  4405
 C         4.832417         0.211048        -0.351810
 C         3.305798         0.282841        -0.275120
 C         2.294881         1.216009        -1.169365
 C         1.329041         0.456508        -0.071834
 C         2.350527        -0.864434        -0.341424
 O         2.406631        -1.754724         0.777454
 C         2.519861        -0.751085         1.840731
 C         2.408192         0.587752         1.077448
 O         2.639884         1.734053         1.941317
 H         4.980685        -0.236469        -1.299997
 H         5.324753         1.163685        -0.306504
 H         5.217086        -0.500799         0.379227
 H         2.434697         2.277983        -1.097663
 H         2.273567         0.730834        -2.141388
 H         0.254523         0.397947         0.122211
 H         2.254257        -1.409700        -1.289053
 H         1.679982        -0.937460         2.521892
 H         3.452721        -0.893082         2.450102
 H         2.001480         2.414687         1.633950
