19
Iteration:  1470
 C         4.834544         0.086049        -0.376883
 C         3.292289         0.134280        -0.299156
 C         2.279568         0.891680        -1.209352
 C         1.433574         0.210544        -0.082138
 C         2.288627        -1.026663        -0.146925
 O         2.530075        -1.621528         1.141608
 C         2.475475        -0.408535         2.060714
 C         2.422532         0.709799         1.008907
 O         2.555361         2.045138         1.409818
 H         5.178350        -0.774416         0.111080
 H         5.222429         0.181796        -1.371101
 H         5.100389         0.972857         0.146641
 H         2.188743         1.935535        -1.200352
 H         2.214200         0.396648        -2.224978
 H         0.241335         0.247354         0.105218
 H         2.156327        -1.754535        -0.888837
 H         1.625837        -0.549417         2.755508
 H         3.407473        -0.663231         2.565048
 H         2.088991         2.415174         0.693080
