19
Iteration:  4570charge 0 multiplicity 1
 C         4.816351         0.190651        -0.401025
 C         3.271148         0.359684        -0.235217
 C         2.269719         1.231145        -0.947141
 C         1.419720         0.354961        -0.094854
 C         2.313338        -0.909900        -0.366356
 O         2.422774        -1.743461         0.754878
 C         2.509606        -0.804089         1.932451
 C         2.495698         0.611869         1.082465
 O         2.526220         1.781332         1.737840
 H         5.178376        -0.094150        -1.353146
 H         5.311738         1.140033        -0.044479
 H         5.037445        -0.590421         0.360063
 H         2.334287         2.331833        -0.615647
 H         2.219030         1.174268        -2.066537
 H         0.302616         0.440746        -0.045678
 H         2.113354        -1.435072        -1.262925
 H         1.609100        -1.027939         2.530364
 H         3.435059        -0.919396         2.581988
 H         3.226994         2.301532         1.358570
