19
Iteration:   870
 C         4.761797         0.149594        -0.369570
 C         3.267967         0.140354        -0.275263
 C         2.291440         0.833776        -1.225936
 C         1.415041         0.317873        -0.103202
 C         2.359257        -1.085032        -0.115859
 O         2.424814        -1.589908         1.145089
 C         2.628688        -0.472007         1.979498
 C         2.400794         0.707858         0.953912
 O         2.548151         1.974264         1.515043
 H         5.194694        -0.237436         0.540126
 H         5.178915        -0.540898        -1.152533
 H         5.218759         1.139134        -0.572970
 H         2.236626         1.916676        -1.275650
 H         1.978735         0.490016        -2.233642
 H         0.253946         0.339246        -0.055624
 H         2.271084        -1.755998        -0.914285
 H         1.892801        -0.280696         2.755319
 H         3.600060        -0.611749         2.401168
 H         2.211498         2.629032         0.803523
