19
Iteration:  1532charge 0 multiplicity 1
 C         4.802144         0.220122        -0.411658
 C         3.325211         0.195541        -0.203393
 C         2.294854         0.783957        -1.218871
 C         1.342703         0.175437        -0.185667
 C         2.326844        -1.025782        -0.105780
 O         2.350770        -1.625115         1.130185
 C         2.569941        -0.374224         2.005979
 C         2.455469         0.687281         1.003381
 O         2.553428         1.973103         1.520458
 H         5.317920        -0.492766         0.324479
 H         5.113462        -0.162619        -1.447290
 H         5.312661         1.164975        -0.201328
 H         2.221487         1.864455        -1.479966
 H         2.253890         0.178802        -2.157379
 H         0.340994         0.121994        -0.238403
 H         2.341638        -1.671469        -0.942460
 H         1.915380        -0.086311         2.864701
 H         3.557525        -0.659962         2.367265
 H         2.846894         2.574380         0.874885
