19
Iteration:  2818
 C         4.775053         0.110839        -0.453982
 C         3.250152         0.234816        -0.239127
 C         2.221714         0.994806        -1.187067
 C         1.361625         0.375354        -0.071696
 C         2.351401        -0.973330        -0.232302
 O         2.526501        -1.728175         0.960634
 C         2.462190        -0.556163         1.883513
 C         2.440987         0.702009         1.024535
 O         2.584446         1.954686         1.712538
 H         5.336745         0.496033         0.418443
 H         5.065448        -0.947894        -0.635222
 H         5.215530         0.750366        -1.283559
 H         2.296360         2.028451        -1.427347
 H         2.042923         0.514608        -2.172219
 H         0.286031         0.313874         0.095072
 H         2.449755        -1.606289        -0.970095
 H         1.674291        -0.743965         2.606219
 H         3.391515        -0.603467         2.470649
 H         3.208658         1.864991         2.412925
