19
Iteration:  2243
 C         4.807155         0.259644        -0.368071
 C         3.340670         0.096496        -0.361123
 C         2.334518         0.929462        -1.181385
 C         1.344302         0.173055        -0.068101
 C         2.267080        -1.072334        -0.168966
 O         2.328482        -1.563379         1.208405
 C         2.563321        -0.426983         1.997144
 C         2.509189         0.592888         0.930490
 O         2.578232         1.957034         1.472592
 H         5.087287        -0.543897         0.299782
 H         5.304810         0.186651        -1.367479
 H         5.081924         1.165404         0.114947
 H         2.286008         2.058323        -1.032000
 H         2.167579         0.677415        -2.355066
 H         0.322178         0.034637         0.094557
 H         2.380745        -1.870030        -0.999814
 H         1.901567        -0.242299         2.790163
 H         3.554872        -0.515062         2.502150
 H         2.510216         2.467469         0.674783
