19
Iteration:  4242
 C         4.814996         0.247340        -0.358069
 C         3.331390         0.289788        -0.179292
 C         2.315514         1.166442        -1.025937
 C         1.442117         0.371401        -0.081644
 C         2.225480        -0.899718        -0.381628
 O         2.323456        -1.729267         0.797810
 C         2.535836        -0.777368         1.894538
 C         2.427284         0.550300         1.088120
 O         2.617236         1.802848         1.773273
 H         5.070280         0.930726        -1.203412
 H         5.318275         0.841453         0.563950
 H         5.438357        -0.693178        -0.482617
 H         2.318112         2.290844        -0.873506
 H         2.383199         0.933448        -2.109955
 H         0.371955         0.463618        -0.207353
 H         1.895546        -1.434172        -1.296980
 H         1.839045        -1.028320         2.694207
 H         3.589866        -0.825836         2.274049
 H         2.710468         2.302398         1.009913
