19
Iteration:  4995
 C         4.760313         0.429567        -0.418390
 C         3.342905         0.299219        -0.218271
 C         2.361013         1.146064        -0.941510
 C         1.427913         0.298556        -0.103031
 C         2.230266        -0.914340        -0.374882
 O         2.277261        -1.692400         0.807308
 C         2.561362        -0.805165         1.917533
 C         2.475167         0.540992         1.116714
 O         2.627438         1.698414         1.748130
 H         5.017320         0.064733        -1.370203
 H         4.940638         1.495305        -0.688447
 H         5.559250         0.121276         0.282044
 H         2.268444         2.259667        -0.627028
 H         2.154406         1.120075        -2.041264
 H         0.307147         0.267243         0.060386
 H         2.016790        -1.564729        -1.236964
 H         1.829403        -0.873604         2.782519
 H         3.598397        -0.820209         2.284059
 H         3.024321         2.227185         0.908470
