19
Iteration:  3677
 C         4.924210         0.190973        -0.419204
 C         3.315214         0.263972        -0.254271
 C         2.268870         1.293188        -0.904170
 C         1.389927         0.357624        -0.102214
 C         2.301597        -0.875271        -0.409205
 O         2.362384        -1.714674         0.815133
 C         2.447206        -0.719759         1.924371
 C         2.500624         0.533138         1.066255
 O         2.562074         1.722668         1.741898
 H         4.938021        -0.407606        -1.267070
 H         5.297529         1.200060        -0.520250
 H         5.423505        -0.298927         0.413211
 H         2.240757         2.277711        -0.607707
 H         2.197176         1.081592        -1.984744
 H         0.370767         0.406108         0.317930
 H         2.277294        -1.431763        -1.309710
 H         1.537446        -0.780713         2.590821
 H         3.390564        -0.842660         2.481976
 H         2.863965         2.478140         1.126624
