19
Iteration:  2624
 C         4.900043         0.223463        -0.478125
 C         3.372686         0.212729        -0.294863
 C         2.221539         0.968797        -1.248148
 C         1.386790         0.296562        -0.139075
 C         2.225498        -1.005845        -0.135604
 O         2.362641        -1.658885         1.076920
 C         2.550916        -0.517352         1.959303
 C         2.502014         0.677288         0.978646
 O         2.489115         1.856207         1.712577
 H         5.374336        -0.483549        -1.110980
 H         5.240500         1.194833        -0.830628
 H         5.357560         0.033940         0.477828
 H         2.532390         1.967899        -1.315147
 H         1.984866         0.477875        -2.200510
 H         0.328121         0.293654        -0.026740
 H         2.132468        -1.783954        -1.052887
 H         1.784689        -0.427380         2.737373
 H         3.524008        -0.638299         2.362337
 H         3.291052         2.284545         1.601786
