19
Iteration:  2974charge 0 multiplicity 1
 C         4.778120         0.207441        -0.407834
 C         3.272721         0.240074        -0.244066
 C         2.221857         1.003071        -1.105830
 C         1.402585         0.304783        -0.081732
 C         2.256654        -0.943343        -0.277537
 O         2.458879        -1.711189         0.902705
 C         2.503174        -0.640564         1.900033
 C         2.464667         0.641020         1.073970
 O         2.640707         1.954717         1.632657
 H         5.155321        -0.068194        -1.431479
 H         5.214762         1.169815         0.012712
 H         5.352804        -0.536815         0.201333
 H         2.345742         2.156046        -1.002463
 H         2.085821         0.834028        -2.172753
 H         0.288797         0.342653        -0.098646
 H         2.226580        -1.570489        -1.188989
 H         1.726071        -0.839639         2.663354
 H         3.425553        -0.697503         2.509695
 H         2.889365         1.910515         2.623212
