19
Iteration:  3922charge 0 multiplicity 1
 C         4.810319         0.252926        -0.265981
 C         3.293986         0.227546        -0.320143
 C         2.302530         1.122144        -1.004919
 C         1.327108         0.448345        -0.094804
 C         2.251038        -0.892905        -0.395844
 O         2.431027        -1.693318         0.827203
 C         2.478863        -0.690714         1.848280
 C         2.453239         0.555394         1.041362
 O         2.706001         1.691030         1.822667
 H         5.156770         0.880044        -1.169073
 H         5.195365         0.819302         0.565872
 H         5.246278        -0.730963        -0.424257
 H         2.419736         2.212489        -0.870767
 H         2.102625         1.010610        -2.129613
 H         0.277917         0.474628        -0.099355
 H         2.124676        -1.427804        -1.386855
 H         1.652889        -0.823479         2.580769
 H         3.423046        -0.694366         2.465071
 H         2.310954         2.376478         1.351117
