19
Iteration:  4918charge 0 multiplicity 1
 C         4.737263         0.241657        -0.422304
 C         3.250523         0.329838        -0.242452
 C         2.225763         1.207322        -1.060134
 C         1.408872         0.353668        -0.125185
 C         2.316080        -0.900732        -0.330550
 O         2.511298        -1.750854         0.809323
 C         2.523588        -0.744447         1.888648
 C         2.376554         0.626786         1.065973
 O         2.668689         1.720686         1.860881
 H         4.780828        -0.294893        -1.336969
 H         5.470965         1.069290        -0.328805
 H         5.110418        -0.478782         0.373313
 H         2.194710         2.330396        -0.910479
 H         2.384464         1.184033        -2.151207
 H         0.298567         0.397872         0.074832
 H         2.341224        -1.497710        -1.280632
 H         1.758820        -1.012428         2.706615
 H         3.524017        -0.743097         2.355582
 H         2.299043         2.496201         1.462496
