19
Iteration:   799
 C         4.838615         0.224122        -0.459561
 C         3.327449         0.249164        -0.255672
 C         2.268989         0.839196        -1.129470
 C         1.405974         0.153724        -0.149773
 C         2.244642        -1.044534        -0.099170
 O         2.401906        -1.574751         1.175779
 C         2.508058        -0.501714         2.048042
 C         2.495888         0.679478         0.968251
 O         2.552799         1.959301         1.426034
 H         5.182138        -0.787419        -0.095177
 H         5.224578         0.316641        -1.470515
 H         5.337180         1.051207         0.072778
 H         2.369229         1.981484        -1.221077
 H         2.168506         0.473021        -2.135911
 H         0.384696         0.331445        -0.096562
 H         2.203306        -2.024683        -0.751334
 H         1.605423        -0.548321         2.721748
 H         3.438731        -0.248277         2.694850
 H         2.834637         2.455484         0.560187
