19
Iteration:  1006charge 0 multiplicity 1
 C         4.872738         0.189660        -0.308347
 C         3.254543         0.174744        -0.251068
 C         2.296283         0.877584        -1.170972
 C         1.346826         0.237806        -0.079537
 C         2.306082        -1.024904        -0.123110
 O         2.340309        -1.660373         1.182497
 C         2.657545        -0.449067         1.968606
 C         2.436897         0.626572         0.956644
 O         2.549780         2.013489         1.370524
 H         5.444108        -0.729350         0.004228
 H         5.076943         0.435082        -1.335700
 H         5.141708         1.123168         0.141865
 H         2.372269         1.947988        -1.210778
 H         2.259835         0.443040        -2.234862
 H         0.197258         0.064952         0.046633
 H         2.101808        -1.751158        -0.904528
 H         2.002697        -0.439907         2.809834
 H         3.699755        -0.503928         2.330739
 H         2.508957         2.516912         0.577077
