19
Iteration:  3077
 C         4.816132         0.298948        -0.470166
 C         3.279512         0.206751        -0.403817
 C         2.265450         1.080068        -1.131030
 C         1.414631         0.326756        -0.056889
 C         2.233895        -0.921127        -0.269468
 O         2.485042        -1.674070         0.947993
 C         2.408939        -0.613889         1.954353
 C         2.526636         0.594110         0.991158
 O         2.670425         1.743628         1.842225
 H         5.279121        -0.622323        -0.119588
 H         5.239391         0.425071        -1.437867
 H         5.133721         1.075492         0.233016
 H         2.242375         2.082836        -1.030190
 H         1.969734         0.831011        -2.133653
 H         0.367203         0.334411         0.160398
 H         2.138465        -1.687744        -1.044668
 H         1.464864        -0.518617         2.386108
 H         3.234473        -0.718574         2.643599
 H         2.213233         2.364062         1.307412
