19
Iteration:  2114charge 0 multiplicity 1
 C         4.854817         0.189481        -0.375714
 C         3.351149         0.174499        -0.320484
 C         2.264731         0.882847        -1.194391
 C         1.421766         0.236846        -0.010848
 C         2.258847        -0.991808        -0.142570
 O         2.398006        -1.683207         1.178602
 C         2.485828        -0.482009         2.015249
 C         2.499673         0.685899         0.996629
 O         2.562354         1.976460         1.399759
 H         5.388383        -0.504505         0.326143
 H         5.217210        -0.146095        -1.439791
 H         5.185821         1.203959        -0.161867
 H         2.264833         2.025309        -1.236825
 H         2.084465         0.540118        -2.244075
 H         0.277308         0.282440        -0.013148
 H         2.039846        -1.739702        -0.975481
 H         1.778329        -0.511282         2.896816
 H         3.531680        -0.414201         2.342931
 H         2.328399         2.565993         0.617656
