19
Iteration:  4911charge 0 multiplicity 1
 C         4.842727         0.195548        -0.422768
 C         3.240836         0.362130        -0.256676
 C         2.247782         1.216576        -0.987503
 C         1.319479         0.345835        -0.103634
 C         2.281606        -0.909788        -0.331522
 O         2.504723        -1.712426         0.786335
 C         2.535594        -0.752561         1.858549
 C         2.471061         0.558889         1.076568
 O         2.610248         1.780025         1.810844
 H         5.035146        -0.282308        -1.423492
 H         5.473738         1.121491        -0.179922
 H         5.042592        -0.561047         0.328977
 H         2.183441         2.270716        -0.722104
 H         2.268152         1.010124        -2.055346
 H         0.237350         0.343128         0.159838
 H         2.243532        -1.579849        -1.170218
 H         1.773256        -0.978778         2.582025
 H         3.539980        -0.829012         2.348774
 H         2.201004         2.545884         1.552078
