19
Iteration:  4981charge 0 multiplicity 1
 C         4.825491         0.507413        -0.498666
 C         3.330403         0.234850        -0.267726
 C         2.258045         1.151530        -1.022564
 C         1.421985         0.381679         0.021096
 C         2.336300        -0.898055        -0.312177
 O         2.218937        -1.754884         0.835719
 C         2.529758        -0.798745         1.892548
 C         2.553953         0.473636         1.052830
 O         2.591194         1.726591         1.774238
 H         5.312039        -0.122519        -1.294339
 H         4.978935         1.544511        -0.607533
 H         5.246911         0.118512         0.470497
 H         2.476169         2.227823        -0.849406
 H         2.234375         0.878295        -2.140399
 H         0.365450         0.535533         0.192328
 H         2.324749        -1.441051        -1.300903
 H         1.707688        -0.850890         2.605397
 H         3.405455        -1.178645         2.367803
 H         3.009661         2.445775         1.389124
