19
Iteration:  1627
 C         4.872123         0.093859        -0.393246
 C         3.356852         0.180579        -0.247062
 C         2.329580         0.799462        -1.307230
 C         1.383732         0.239322        -0.093069
 C         2.225413        -1.050621        -0.119156
 O         2.397267        -1.590039         1.128641
 C         2.616543        -0.401530         1.929605
 C         2.469158         0.720234         0.932422
 O         2.447838         2.001315         1.635393
 H         5.355150        -0.382993         0.456901
 H         5.137283        -0.419540        -1.265108
 H         5.343885         1.087233        -0.431343
 H         2.437790         1.945854        -1.355099
 H         2.179141         0.357756        -2.326336
 H         0.282006         0.106161        -0.116651
 H         2.144990        -1.936784        -0.779692
 H         1.902295        -0.369961         2.731041
 H         3.634923        -0.311313         2.359369
 H         2.119006         2.715995         1.056996
