19
Iteration:   209charge 0 multiplicity 1
 C         4.849523         0.050120        -0.482011
 C         3.304524         0.143469        -0.253933
 C         2.244619         0.856767        -1.186403
 C         1.394134         0.207280        -0.077539
 C         2.263103        -0.984146        -0.159860
 O         2.594353        -1.560940         1.196458
 C         2.348324        -0.390172         2.048835
 C         2.434904         0.697026         1.002685
 O         2.534880         2.014268         1.367041
 H         5.277849        -0.482942         0.339368
 H         5.129997        -0.373542        -1.415764
 H         5.281334         1.038903        -0.446229
 H         2.312413         1.869457        -1.260065
 H         2.263009         0.360390        -2.163174
 H         0.299855         0.203051        -0.094370
 H         2.325614        -1.822272        -0.918304
 H         1.448643        -0.502292         2.641908
 H         3.235896        -0.351214         2.662735
 H         3.388291         2.196806         1.908929
