19
Iteration:  4592charge 0 multiplicity 1
 C         4.834039         0.254701        -0.290108
 C         3.277941         0.292383        -0.282242
 C         2.242379         1.171426        -1.080036
 C         1.338970         0.362022        -0.062467
 C         2.342368        -0.847128        -0.374920
 O         2.357619        -1.687658         0.833462
 C         2.522048        -0.718934         1.794651
 C         2.481602         0.610055         0.966999
 O         2.588252         1.664492         1.861796
 H         5.158348        -0.249630        -1.176971
 H         5.127928         1.351480        -0.286261
 H         5.308155        -0.219193         0.618755
 H         2.236475         2.280440        -0.748831
 H         2.212770         1.051790        -2.199731
 H         0.259757         0.046812         0.035376
 H         2.159238        -1.470873        -1.230331
 H         1.835318        -0.599784         2.651919
 H         3.591921        -0.782747         2.205560
 H         3.597752         1.807128         1.914421
