19
Iteration:  3671
 C         4.884165         0.198116        -0.419675
 C         3.342377         0.272908        -0.199199
 C         2.236134         1.242706        -0.939301
 C         1.395813         0.374611        -0.086600
 C         2.336367        -0.867206        -0.366668
 O         2.331026        -1.765540         0.768401
 C         2.436685        -0.750435         1.958922
 C         2.512021         0.517886         1.079756
 O         2.580023         1.779186         1.722191
 H         5.129464        -0.315797        -1.472970
 H         5.439225         1.172432        -0.419995
 H         5.375669        -0.369568         0.448408
 H         2.215802         2.430541        -0.764992
 H         2.107514         1.232044        -2.043962
 H         0.318884         0.473476         0.179356
 H         2.351114        -1.222020        -1.474985
 H         1.735680        -0.756817         2.795459
 H         3.411023        -0.944293         2.449201
 H         2.714197         2.550951         1.102656
