19
Iteration:  4608charge 0 multiplicity 1
 C         4.815063         0.376575        -0.312554
 C         3.331619         0.349680        -0.329885
 C         2.250477         1.129784        -1.165333
 C         1.393453         0.398401        -0.142817
 C         2.210423        -0.907753        -0.304685
 O         2.320655        -1.745149         0.792542
 C         2.601691        -0.712401         1.856147
 C         2.424130         0.525758         1.080786
 O         2.637597         1.718167         1.883733
 H         5.337908        -0.340337        -1.017066
 H         5.289554         1.336223        -0.357846
 H         5.119586         0.029831         0.662698
 H         2.326675         2.193630        -1.130026
 H         2.028630         0.700799        -2.151447
 H         0.365147         0.680517        -0.037527
 H         2.180069        -1.466912        -1.274164
 H         1.820124        -0.966554         2.579453
 H         3.574766        -0.861833         2.304822
 H         3.397510         1.547369         2.389764
