19
Iteration:  4675
 C         4.758975         0.259908        -0.466507
 C         3.297205         0.325196        -0.265968
 C         2.282975         1.327873        -0.902450
 C         1.367806         0.314083        -0.174648
 C         2.360868        -0.890240        -0.309126
 O         2.407492        -1.751963         0.815357
 C         2.463623        -0.737088         1.921479
 C         2.520629         0.520262         1.060125
 O         2.665691         1.719932         1.719424
 H         5.053072        -0.326492        -1.407805
 H         5.265975         1.196144        -0.501536
 H         5.230939        -0.338946         0.317504
 H         2.112727         2.229608        -0.404832
 H         2.080434         1.384741        -1.981793
 H         0.317287         0.236995        -0.124822
 H         2.549637        -1.535936        -1.158166
 H         1.560756        -0.583074         2.593338
 H         3.345972        -0.931746         2.540793
 H         1.798250         2.078830         2.182225
