19
Iteration:  1325
 C         4.795088         0.150152        -0.324721
 C         3.286578         0.119813        -0.301049
 C         2.242989         0.834981        -1.177050
 C         1.432596         0.235190        -0.146875
 C         2.248583        -1.027631        -0.180896
 O         2.558085        -1.550497         1.101298
 C         2.489020        -0.438131         2.082675
 C         2.432969         0.691439         1.038589
 O         2.610431         1.979663         1.392325
 H         5.205385        -0.432116         0.506052
 H         5.169615        -0.257747        -1.291092
 H         5.171914         1.137428        -0.242835
 H         2.310526         1.860912        -1.267278
 H         2.217898         0.362114        -2.251688
 H         0.225575         0.173869         0.212889
 H         2.194197        -1.913080        -0.909353
 H         1.476741        -0.343281         2.592242
 H         3.214514        -0.589604         2.904191
 H         2.096103         2.694566         0.932602
