19
Iteration:  4514charge 0 multiplicity 1
 C         4.869599         0.160568        -0.448807
 C         3.355265         0.361418        -0.299612
 C         2.295363         1.274074        -1.142975
 C         1.396146         0.357347        -0.156810
 C         2.313171        -0.917115        -0.379087
 O         2.364291        -1.711519         0.934791
 C         2.519209        -0.681282         1.869069
 C         2.462582         0.584651         1.056111
 O         2.543157         1.659086         1.947082
 H         5.184040         0.637888        -1.378702
 H         5.395981         0.571728         0.388375
 H         5.300399        -0.849658        -0.482536
 H         2.491940         2.364360        -0.950494
 H         2.074649         1.050830        -2.235542
 H         0.336292         0.307233        -0.007990
 H         2.284253        -1.573114        -1.210012
 H         1.610102        -0.778472         2.501584
 H         3.439973        -0.731258         2.530043
 H         1.930505         2.500080         1.740246
