19
Iteration:  3548
 C         4.814686         0.212431        -0.427919
 C         3.318060         0.209869        -0.283757
 C         2.362233         1.208500        -0.917202
 C         1.425164         0.392792        -0.062130
 C         2.272792        -0.909517        -0.358664
 O         2.388119        -1.730005         0.835797
 C         2.465508        -0.752312         1.874384
 C         2.530157         0.580568         1.065987
 O         2.495629         1.794223         1.716858
 H         5.142882         0.948195        -1.168184
 H         5.294289         0.686647         0.401983
 H         5.176414        -0.874527        -0.585703
 H         2.456840         2.301225        -0.610498
 H         2.206407         1.233618        -2.055991
 H         0.311824         0.363892         0.057491
 H         2.018760        -1.521084        -1.136096
 H         1.563273        -0.615250         2.521694
 H         3.343285        -0.922658         2.529004
 H         3.181280         2.399303         1.486284
