19
Iteration:   554
 C         4.821654         0.041068        -0.329287
 C         3.287861         0.182645        -0.310828
 C         2.293833         0.899077        -1.205283
 C         1.367342         0.172254        -0.104020
 C         2.307483        -0.914794        -0.159693
 O         2.500578        -1.585987         1.190207
 C         2.565754        -0.426909         2.027467
 C         2.445075         0.647284         0.946935
 O         2.484265         1.973079         1.417465
 H         5.154701        -0.824546         0.195807
 H         5.178050         0.028104        -1.376730
 H         5.295584         0.910724         0.178341
 H         2.353503         2.018640        -1.152403
 H         2.293620         0.490034        -2.304708
 H         0.248412         0.126202         0.147433
 H         2.117246        -1.626950        -0.905531
 H         1.695882        -0.374395         2.729060
 H         3.518641        -0.455235         2.594355
 H         2.421718         2.653492         0.763816
