19
Iteration:    40
 C         4.799569         0.115050        -0.483892
 C         3.364788         0.138405        -0.279058
 C         2.367909         0.813751        -1.168144
 C         1.426314         0.281330        -0.040242
 C         2.381027        -1.026080        -0.069481
 O         2.314571        -1.627733         1.216263
 C         2.545804        -0.396765         1.909685
 C         2.436390         0.726386         0.894575
 O         2.452590         1.957915         1.502226
 H         5.305360        -0.329001         0.420647
 H         5.008392        -0.579133        -1.345668
 H         5.185618         1.188479        -0.605760
 H         2.513867         1.967445        -1.346254
 H         2.132956         0.423795        -2.225203
 H         0.343973         0.311786         0.208889
 H         2.295070        -1.761995        -0.899694
 H         2.060200        -0.242183         2.930941
 H         3.605948        -0.345477         2.435556
 H         2.507273         2.602598         0.750558
