19
Iteration:  4371charge 0 multiplicity 1
 C         4.832298         0.175225        -0.501915
 C         3.355096         0.299988        -0.307937
 C         2.391667         1.185288        -1.083300
 C         1.385888         0.434238        -0.063583
 C         2.311755        -0.817017        -0.314118
 O         2.346936        -1.685522         0.815857
 C         2.575567        -0.728522         1.830931
 C         2.545684         0.599777         1.072429
 O         2.388778         1.640624         2.011855
 H         4.958604        -0.541955        -1.324368
 H         5.284242         1.047068        -0.817742
 H         5.341746        -0.219518         0.348553
 H         2.532640         2.244489        -1.138274
 H         2.376031         1.025729        -2.189612
 H         0.334896         0.356737         0.161462
 H         2.180440        -1.543304        -1.206246
 H         1.643161        -0.717767         2.407149
 H         3.440202        -0.868189         2.525991
 H         2.458391         2.485715         1.383650
