19
Iteration:  1069
 C         4.766804         0.100224        -0.421613
 C         3.329186         0.235370        -0.324889
 C         2.224061         0.784350        -1.241830
 C         1.358366         0.283805        -0.135848
 C         2.403685        -1.023977        -0.146809
 O         2.524270        -1.562430         1.170750
 C         2.452610        -0.409591         2.028599
 C         2.439008         0.668586         0.947066
 O         2.596956         1.936723         1.574582
 H         5.169535        -0.661053         0.278999
 H         5.081588         0.004366        -1.445164
 H         5.214750         1.049093         0.069834
 H         2.229268         1.824179        -1.470334
 H         2.155618         0.111337        -2.165541
 H         0.171270         0.245062        -0.069860
 H         2.304971        -1.876658        -0.847311
 H         1.533105        -0.137018         2.544111
 H         3.207808        -0.404144         2.806610
 H         2.418283         2.539553         0.896877
