19
Iteration:   631
 C         4.855869         0.238264        -0.445387
 C         3.337613         0.149869        -0.254480
 C         2.304152         0.777950        -1.336418
 C         1.397399         0.319525        -0.098774
 C         2.368971        -0.998087        -0.070124
 O         2.298414        -1.641731         1.212316
 C         2.544571        -0.383757         1.978466
 C         2.429483         0.661120         0.920128
 O         2.529103         1.886051         1.566905
 H         5.422088        -0.118930         0.382779
 H         5.160197        -0.245178        -1.360242
 H         5.059652         1.349465        -0.572479
 H         2.474358         1.798035        -1.347808
 H         2.059711         0.237088        -2.321686
 H         0.274882         0.014471         0.010326
 H         2.386350        -1.735241        -0.796693
 H         1.929653        -0.300299         2.908901
 H         3.621239        -0.416353         2.293432
 H         2.610334         2.671968         0.997982
