19
Iteration:  3814charge 0 multiplicity 1
 C         4.896174         0.203555        -0.355379
 C         3.331199         0.375812        -0.302417
 C         2.223539         1.136198        -1.104636
 C         1.382059         0.428565        -0.058538
 C         2.370815        -0.834978        -0.408770
 O         2.333506        -1.745450         0.783957
 C         2.457665        -0.802504         1.897413
 C         2.459374         0.596292         1.072057
 O         2.671582         1.758561         1.883739
 H         5.221379        -0.714611        -0.930304
 H         5.575406         0.982399        -0.606640
 H         5.235173         0.151885         0.651805
 H         2.104234         2.227092        -0.959624
 H         2.068885         0.758811        -2.038540
 H         0.340925         0.521504         0.095895
 H         2.112351        -1.433565        -1.344061
 H         1.528782        -0.855945         2.470211
 H         3.272010        -1.173801         2.535209
 H         2.117632         2.433003         1.538909
