19
Iteration:   438
 C         4.856010         0.103410        -0.340612
 C         3.268418         0.146708        -0.284410
 C         2.256879         0.916243        -1.232195
 C         1.391973         0.245185        -0.132444
 C         2.348490        -0.987423        -0.093767
 O         2.455361        -1.667984         1.189558
 C         2.478014        -0.421172         1.991582
 C         2.446234         0.657372         0.973977
 O         2.580720         1.985830         1.442867
 H         5.200982        -0.122449         0.691236
 H         5.211751        -0.521213        -1.143886
 H         5.078597         1.223014        -0.511458
 H         2.454996         2.024046        -1.450528
 H         2.111077         0.469997        -2.232230
 H         0.325641         0.256458        -0.109463
 H         2.160469        -1.769872        -0.892155
 H         1.614694        -0.348656         2.667055
 H         3.413894        -0.375748         2.602451
 H         2.404129         2.498288         0.654853
