19
Iteration:  3696charge 0 multiplicity 1
 C         4.763195         0.189112        -0.464258
 C         3.311805         0.297020        -0.316423
 C         2.388677         1.228990        -1.022607
 C         1.397507         0.360044        -0.097476
 C         2.262457        -0.916402        -0.287969
 O         2.471941        -1.686141         0.824943
 C         2.420002        -0.686719         1.861109
 C         2.466492         0.569748         1.039177
 O         2.553765         1.654517         1.884124
 H         5.150048        -0.598043        -1.123085
 H         5.263609         1.172750        -0.692466
 H         5.107269         0.089963         0.529382
 H         2.528280         2.305779        -0.578017
 H         2.210210         1.347262        -2.087128
 H         0.338630         0.391016        -0.200688
 H         1.977986        -1.420706        -1.290105
 H         1.569479        -0.594193         2.512922
 H         3.287065        -0.795902         2.513036
 H         3.135928         2.437583         1.508085
