19
Iteration:  1062charge 0 multiplicity 1
 C         4.802236         0.127473        -0.383236
 C         3.295772         0.241391        -0.353009
 C         2.220168         0.763983        -1.235689
 C         1.388602         0.274795        -0.104944
 C         2.389049        -1.055501        -0.129329
 O         2.485192        -1.569570         1.171644
 C         2.477710        -0.377720         1.990789
 C         2.412160         0.646700         0.939983
 O         2.599919         1.946288         1.569102
 H         5.252704        -0.770419         0.161082
 H         5.187587         0.067028        -1.418282
 H         5.294848         0.975690         0.024848
 H         2.129799         1.858164        -1.338495
 H         2.179434         0.225014        -2.195457
 H         0.293807         0.262896        -0.074022
 H         2.303914        -1.809545        -0.885373
 H         1.508875        -0.336693         2.533610
 H         3.291949        -0.252179         2.673786
 H         2.473838         2.646560         0.952316
