19
Iteration:  4378
 C         4.842787         0.188947        -0.506603
 C         3.369900         0.277181        -0.275919
 C         2.382964         1.104261        -1.096064
 C         1.419836         0.458291        -0.068014
 C         2.259713        -0.788047        -0.292402
 O         2.396978        -1.655899         0.793819
 C         2.572937        -0.747874         1.783689
 C         2.486669         0.611322         1.111807
 O         2.416429         1.659466         2.018646
 H         4.905584        -0.607799        -1.339842
 H         5.321370         1.185712        -0.705121
 H         5.231983        -0.233801         0.436343
 H         2.419599         2.238432        -1.144262
 H         2.372793         0.612536        -2.111923
 H         0.307334         0.516920        -0.011502
 H         2.074028        -1.306119        -1.277605
 H         1.655481        -0.709009         2.444850
 H         3.435108        -1.096397         2.368236
 H         2.346300         2.434210         1.447573
