19
Iteration:  3465charge 0 multiplicity 1
 C         4.816138         0.246151        -0.359941
 C         3.267415         0.269567        -0.331017
 C         2.275110         1.299104        -0.980636
 C         1.390535         0.398348        -0.073190
 C         2.304041        -0.917021        -0.350619
 O         2.402944        -1.724380         0.825779
 C         2.472503        -0.769873         1.915835
 C         2.440753         0.528544         1.004489
 O         2.699043         1.736220         1.688456
 H         5.229402        -0.396184        -1.158225
 H         5.315385         1.241674        -0.247761
 H         5.225938        -0.195483         0.535096
 H         2.373684         2.360577        -0.654887
 H         2.037088         1.320514        -2.017753
 H         0.359105         0.478941         0.261491
 H         2.332658        -1.623590        -1.226488
 H         1.659408        -0.864272         2.665031
 H         3.501407        -0.744105         2.427785
 H         1.843617         1.912297         2.249363
