19
Iteration:  2507charge 0 multiplicity 1
 C         4.818583         0.081412        -0.433031
 C         3.295892         0.241192        -0.265370
 C         2.361508         0.819993        -1.313246
 C         1.357634         0.266730        -0.161058
 C         2.327500        -0.919850        -0.151877
 O         2.361616        -1.659965         1.088024
 C         2.634214        -0.539552         1.941821
 C         2.455643         0.741788         1.048907
 O         2.480247         1.976106         1.740654
 H         5.169592         0.760751        -1.275221
 H         5.434904         0.597807         0.393350
 H         5.225393        -0.942024        -0.713689
 H         2.285778         1.956285        -1.256126
 H         2.128555         0.316920        -2.196222
 H         0.216776         0.393084        -0.186813
 H         2.263540        -1.571310        -1.115883
 H         1.920383        -0.507633         2.790270
 H         3.753801        -0.690291         2.158225
 H         2.218111         2.673300         1.136476
