19
Iteration:  2201charge 0 multiplicity 1
 C         4.805284         0.063177        -0.389665
 C         3.266762         0.274911        -0.327724
 C         2.238330         0.875148        -1.291318
 C         1.356219         0.282256        -0.075234
 C         2.353920        -1.007170        -0.111735
 O         2.584817        -1.637710         1.149784
 C         2.395963        -0.525793         2.069557
 C         2.465140         0.722526         0.998319
 O         2.584375         2.008265         1.477471
 H         5.023654        -1.033555        -0.228895
 H         5.223201         0.426197        -1.418462
 H         5.302991         0.689890         0.353557
 H         2.541209         1.818339        -1.531334
 H         2.116079         0.115391        -2.181139
 H         0.240913         0.236849         0.115059
 H         2.213431        -1.804181        -0.930766
 H         1.467675        -0.592490         2.668217
 H         3.252609        -0.445938         2.786663
 H         2.440575         2.792012         0.843365
