19
Iteration:  3213
 C         4.809808         0.214726        -0.456526
 C         3.234057         0.305156        -0.284047
 C         2.272827         1.212556        -0.986162
 C         1.367973         0.302323        -0.008526
 C         2.338219        -0.920422        -0.314464
 O         2.460879        -1.715741         0.858788
 C         2.472050        -0.772989         1.963011
 C         2.498141         0.610353         1.055381
 O         2.668121         1.784041         1.655740
 H         5.297030         1.131070        -0.123415
 H         5.159609        -0.733852        -0.021462
 H         4.929547         0.286601        -1.526517
 H         2.376300         2.331403        -0.808288
 H         2.166734         1.149652        -2.044823
 H         0.231058         0.405697         0.236060
 H         2.118929        -1.527646        -1.184960
 H         1.549016        -0.797775         2.562818
 H         3.416480        -0.827861         2.481867
 H         1.887442         2.405631         1.544848
