19
Iteration:  3029charge 0 multiplicity 1
 C         4.834787         0.115057        -0.433758
 C         3.251819         0.310085        -0.234992
 C         2.252515         1.096333        -1.130763
 C         1.352082         0.243455        -0.066371
 C         2.320533        -0.890280        -0.313985
 O         2.354374        -1.640469         0.913439
 C         2.668684        -0.730899         1.930231
 C         2.420412         0.656049         1.072398
 O         2.615210         1.903089         1.691022
 H         5.250008        -0.851165        -0.852482
 H         5.218957         0.958441        -1.115418
 H         5.328237         0.258110         0.553513
 H         2.488533         2.209497        -0.873229
 H         2.298056         0.844668        -2.201320
 H         0.262375         0.082271        -0.054846
 H         2.184878        -1.609490        -1.186942
 H         1.878828        -0.825448         2.731582
 H         3.727380        -0.710848         2.306142
 H         1.741342         2.192444         2.120217
