19
Iteration:  4429
 C         4.798989         0.262948        -0.250443
 C         3.338625         0.306067        -0.308636
 C         2.261367         1.289310        -0.951520
 C         1.380350         0.264139        -0.118079
 C         2.254534        -0.912016        -0.417133
 O         2.376734        -1.687226         0.775129
 C         2.462139        -0.661731         1.908294
 C         2.526132         0.498002         1.019462
 O         2.722581         1.698073         1.737475
 H         5.091133         0.184938        -1.262337
 H         5.219468         1.256121         0.147964
 H         5.089323        -0.694746         0.264587
 H         2.199364         2.271847        -0.474597
 H         2.180065         1.154300        -2.002451
 H         0.302022         0.310913         0.215317
 H         2.172110        -1.513076        -1.249606
 H         1.597506        -0.876084         2.529105
 H         3.361529        -0.716873         2.559806
 H         2.044569         2.225308         1.452251
