19
Iteration:   949charge 0 multiplicity 1
 C         4.831563         0.090383        -0.452235
 C         3.274549         0.223489        -0.304003
 C         2.242712         0.775238        -1.231574
 C         1.384014         0.268884        -0.191344
 C         2.331443        -1.042483        -0.100674
 O         2.567785        -1.566755         1.162194
 C         2.398276        -0.416138         2.032100
 C         2.444331         0.710737         0.954223
 O         2.600365         1.959674         1.619698
 H         5.390760        -0.395598         0.401055
 H         4.944025        -0.416143        -1.410151
 H         5.334723         1.134360        -0.450134
 H         2.233312         1.844336        -1.336350
 H         2.112609         0.281366        -2.314707
 H         0.163179         0.308360        -0.007728
 H         2.216719        -1.775759        -0.966308
 H         1.443347        -0.569317         2.553131
 H         3.265143        -0.346197         2.641532
 H         2.433922         2.675157         0.885907
