19
Iteration:  3740charge 0 multiplicity 1
 C         4.824757         0.228226        -0.360482
 C         3.398554         0.354334        -0.282751
 C         2.270450         1.087061        -1.078615
 C         1.394847         0.366681        -0.039862
 C         2.284442        -0.770214        -0.339402
 O         2.272307        -1.730390         0.713308
 C         2.517161        -0.725526         1.876014
 C         2.503766         0.606525         1.038089
 O         2.597843         1.694873         1.930374
 H         5.052069        -0.708108        -0.858748
 H         5.523574         0.938529        -0.917655
 H         5.305345         0.249645         0.597273
 H         2.280361         2.245914        -1.067003
 H         2.352448         0.705029        -2.112290
 H         0.344844         0.262169         0.155207
 H         2.284436        -1.355244        -1.306824
 H         1.750383        -0.949012         2.605866
 H         3.478139        -0.874385         2.382158
 H         2.475415         2.628070         1.443060
