19
Iteration:  3891
 C         4.889377         0.220217        -0.424835
 C         3.348110         0.361135        -0.225735
 C         2.272891         1.167864        -0.884607
 C         1.393506         0.333793        -0.043863
 C         2.329849        -0.905623        -0.375097
 O         2.276196        -1.685503         0.780273
 C         2.485738        -0.739397         1.881083
 C         2.581420         0.533296         1.074724
 O         2.497346         1.785768         1.753547
 H         5.278779         0.266841        -1.488149
 H         5.505578         0.887514         0.197139
 H         5.145235        -0.803513        -0.260489
 H         2.350849         2.269157        -0.863108
 H         2.086311         1.047986        -1.904955
 H         0.327343         0.320847         0.114895
 H         2.523348        -1.499991        -1.319851
 H         1.609181        -0.762567         2.538616
 H         3.421150        -1.048235         2.415523
 H         2.858753         2.404117         0.987015
