19
Iteration:  3419charge 0 multiplicity 1
 C         4.819824         0.306825        -0.397313
 C         3.290498         0.322244        -0.248082
 C         2.259022         1.138577        -1.118943
 C         1.417209         0.410254         0.020638
 C         2.300244        -0.864550        -0.356300
 O         2.357054        -1.737607         0.734365
 C         2.525868        -0.820847         1.893882
 C         2.453827         0.576709         1.107155
 O         2.593805         1.714960         1.862293
 H         5.132331        -0.596772        -0.946496
 H         5.199967         1.188538        -0.795558
 H         5.475680         0.236283         0.514108
 H         2.343935         2.263766        -1.251015
 H         2.243482         0.783573        -2.131983
 H         0.336838         0.690775         0.023935
 H         2.037923        -1.455927        -1.162653
 H         1.651216        -0.750318         2.505440
 H         3.442833        -0.849434         2.514228
 H         3.220826         2.355793         1.348312
