19
Iteration:   567
 C         4.786729         0.072987        -0.316168
 C         3.313203         0.199209        -0.208420
 C         2.251044         0.902507        -1.151613
 C         1.331918         0.258038        -0.064941
 C         2.321713        -1.097304        -0.146393
 O         2.549349        -1.514398         1.089298
 C         2.482599        -0.390679         2.026475
 C         2.477144         0.658363         0.966920
 O         2.549877         1.911607         1.371009
 H         5.066733        -0.862781         0.130531
 H         5.083503        -0.058532        -1.336760
 H         5.428355         0.956352         0.111043
 H         2.405989         2.105570        -1.296682
 H         2.081130         0.571856        -2.207961
 H         0.243078         0.325961        -0.039616
 H         2.426816        -1.858645        -0.842724
 H         1.613459        -0.537984         2.673638
 H         3.387264        -0.246854         2.652772
 H         2.210746         2.360793         0.497751
