19
Iteration:  1112
 C         4.840054         0.096768        -0.491633
 C         3.320807         0.116372        -0.261605
 C         2.256148         0.914426        -1.160302
 C         1.374673         0.226870        -0.103415
 C         2.385921        -1.016199        -0.117792
 O         2.428014        -1.607350         1.176985
 C         2.500549        -0.399023         1.994712
 C         2.486145         0.673351         0.990820
 O         2.469508         1.967656         1.473766
 H         5.418415        -0.137867         0.356101
 H         5.159955        -0.610907        -1.228502
 H         5.382528         1.080762        -0.679511
 H         2.469035         1.949981        -1.095501
 H         2.069715         0.465401        -2.166755
 H         0.243754         0.203005         0.033337
 H         2.422341        -1.641475        -1.017924
 H         1.673748        -0.483602         2.743255
 H         3.470374        -0.328749         2.549883
 H         2.456340         2.732417         0.864121
