19
Iteration:   510
 C         4.834141         0.135701        -0.441485
 C         3.332486         0.235771        -0.266612
 C         2.388050         0.771128        -1.297426
 C         1.440220         0.253146        -0.114371
 C         2.240268        -1.000688        -0.139533
 O         2.333514        -1.544549         1.200524
 C         2.614163        -0.389605         1.978504
 C         2.482372         0.679847         1.003932
 O         2.457204         1.883606         1.568850
 H         5.215381        -0.499012         0.322071
 H         5.170714        -0.065281        -1.491051
 H         5.172803         1.152604        -0.118071
 H         2.079599         1.846691        -1.441753
 H         2.285068        -0.053589        -2.130529
 H         0.318963        -0.001464        -0.277016
 H         2.152425        -1.682030        -0.927640
 H         1.817820        -0.307834         2.755502
 H         3.601544        -0.210496         2.441853
 H         2.652438         2.519947         0.864772
