19
Iteration:  2632
 C         4.852931         0.224133        -0.482122
 C         3.346412         0.209337        -0.297977
 C         2.279974         1.002242        -1.216200
 C         1.430471         0.295650        -0.072954
 C         2.270460        -0.999315        -0.174808
 O         2.324236        -1.635734         1.084123
 C         2.572377        -0.470527         1.944623
 C         2.489622         0.583096         0.988764
 O         2.446209         1.827092         1.663857
 H         5.269750        -0.652276        -1.085649
 H         5.147582         1.132532        -1.022091
 H         5.425675         0.098320         0.492669
 H         2.429233         2.047323        -1.313342
 H         2.027234         0.545658        -2.265171
 H         0.395105         0.449057         0.004373
 H         2.366194        -1.714628        -0.891739
 H         1.971895        -0.335903         2.823346
 H         3.555833        -0.663793         2.349104
 H         3.265995         2.239323         1.647616
