19
Iteration:   299charge 0 multiplicity 1
 C         4.755269         0.205676        -0.346695
 C         3.269296         0.103329        -0.335864
 C         2.295081         0.792574        -1.293083
 C         1.394230         0.187817        -0.134947
 C         2.309173        -1.058498        -0.100322
 O         2.332528        -1.545695         1.210838
 C         2.567709        -0.397365         1.999029
 C         2.549808         0.725000         0.933349
 O         2.606946         1.961719         1.527098
 H         5.263636        -0.347535         0.483407
 H         5.220904        -0.132536        -1.252771
 H         5.086484         1.154845        -0.240134
 H         2.384481         1.789544        -1.481015
 H         2.374417         0.250629        -2.257122
 H         0.262461         0.172615        -0.107146
 H         2.223144        -1.881055        -0.909243
 H         1.757211        -0.345462         2.741073
 H         3.510325        -0.462653         2.529772
 H         2.300002         2.789995         1.008737
