19
Iteration:  3554
 C         4.828724         0.201393        -0.448242
 C         3.344694         0.209407        -0.280506
 C         2.357048         1.248304        -0.924690
 C         1.446672         0.370437        -0.023274
 C         2.281450        -0.857231        -0.311811
 O         2.381835        -1.787417         0.801270
 C         2.483290        -0.725700         1.896108
 C         2.467857         0.540310         1.066437
 O         2.501957         1.845778         1.715390
 H         5.057597         0.926916        -1.246105
 H         5.187513         0.593186         0.580306
 H         5.161990        -0.785993        -0.566948
 H         2.349900         2.309674        -0.786409
 H         2.167553         1.122563        -1.977756
 H         0.376778         0.496788        -0.045220
 H         2.103514        -1.545368        -1.248375
 H         1.543922        -0.812214         2.476461
 H         3.238170        -1.076885         2.629943
 H         3.255751         2.332352         1.202569
