19
Iteration:   525
 C         4.860635         0.119968        -0.365558
 C         3.316472         0.150602        -0.275565
 C         2.280975         0.756187        -1.293184
 C         1.359790         0.239282        -0.152133
 C         2.364818        -0.983181        -0.094517
 O         2.346451        -1.576019         1.178367
 C         2.634836        -0.408666         1.986791
 C         2.437417         0.701513         0.902471
 O         2.429502         1.978215         1.584142
 H         5.357401        -0.756773         0.122882
 H         5.080377        -0.043839        -1.408582
 H         5.433619         1.091978        -0.071939
 H         2.544528         1.862744        -1.547555
 H         2.214239         0.430500        -2.268810
 H         0.363221         0.410502         0.091927
 H         2.270093        -1.765881        -0.886495
 H         2.011486        -0.383090         2.880408
 H         3.679984        -0.568746         2.292651
 H         2.660823         2.725883         1.077832
