19
Iteration:  1488
 C         4.837970         0.159337        -0.323375
 C         3.320512         0.195588        -0.300669
 C         2.264164         0.789950        -1.198538
 C         1.339723         0.278022        -0.084751
 C         2.297457        -1.016779        -0.117135
 O         2.421428        -1.577386         1.185294
 C         2.585292        -0.416318         1.979339
 C         2.522392         0.665029         0.880999
 O         2.507336         1.913428         1.470825
 H         5.311875        -0.803075         0.053083
 H         5.044457         0.210143        -1.440308
 H         5.385352         0.984714         0.149832
 H         2.562659         1.875992        -1.351484
 H         2.092088         0.242928        -2.235271
 H         0.343788         0.319919         0.004160
 H         2.120139        -1.788666        -0.867057
 H         1.654878        -0.377318         2.622928
 H         3.458536        -0.176487         2.599904
 H         2.258234         2.622372         0.915239
