19
Iteration:  2435
 C         4.785432         0.228647        -0.392587
 C         3.240189         0.222061        -0.203479
 C         2.275181         0.862592        -1.139930
 C         1.397375         0.251342        -0.075594
 C         2.303290        -0.930253        -0.128513
 O         2.428986        -1.665742         1.038388
 C         2.464455        -0.556853         2.002106
 C         2.449405         0.644777         1.025822
 O         2.674195         1.955039         1.447417
 H         5.155753         1.209631        -0.730253
 H         5.237621         0.066726         0.595720
 H         5.221461        -0.642375        -0.961187
 H         2.387757         1.961127        -1.269553
 H         2.244967         0.420488        -2.318447
 H         0.286649         0.113022         0.079238
 H         2.420494        -1.473284        -1.050422
 H         1.529402        -0.613755         2.580100
 H         3.372999        -0.552378         2.553485
 H         2.611355         2.559153         0.673470
