19
Iteration:  2351
 C         4.809571         0.044342        -0.464121
 C         3.304533         0.240241        -0.260415
 C         2.290546         0.927219        -1.152799
 C         1.383963         0.270594        -0.037533
 C         2.390491        -1.016671        -0.185396
 O         2.461905        -1.662049         1.117004
 C         2.509705        -0.536205         2.022956
 C         2.423400         0.659616         1.016025
 O         2.498172         2.051072         1.481238
 H         5.369854         0.567146         0.294356
 H         5.235709        -0.992107        -0.449748
 H         5.020790         0.683869        -1.311963
 H         2.393280         2.063967        -1.172353
 H         2.304311         0.538302        -2.116114
 H         0.337312         0.364706         0.061001
 H         2.270275        -1.740088        -1.154020
 H         1.557026        -0.529891         2.657962
 H         3.465222        -0.519027         2.681130
 H         2.440147         2.615459         0.653930
