19
Iteration:  1035charge 0 multiplicity 1
 C         4.827108         0.167137        -0.323626
 C         3.289370         0.189919        -0.309047
 C         2.245722         0.843029        -1.194270
 C         1.361833         0.236006        -0.157128
 C         2.295482        -1.046274        -0.147836
 O         2.360811        -1.611632         1.199326
 C         2.663304        -0.432701         2.030699
 C         2.492123         0.594489         0.950380
 O         2.534499         2.015870         1.463451
 H         5.385615        -0.743971        -0.040962
 H         5.284039         0.438154        -1.295097
 H         5.110741         1.160208         0.209390
 H         2.219312         1.942732        -1.344201
 H         2.232195         0.467154        -2.256175
 H         0.199433         0.126761        -0.133862
 H         2.175771        -1.889279        -0.885230
 H         1.781641        -0.273859         2.725054
 H         3.687912        -0.556066         2.480104
 H         2.597810         2.586204         0.727804
