19
Iteration:  4386charge 0 multiplicity 1
 C         4.828284         0.160328        -0.487479
 C         3.347129         0.339164        -0.215243
 C         2.360254         1.035780        -1.134654
 C         1.474873         0.477301        -0.055384
 C         2.223899        -0.811920        -0.349407
 O         2.431216        -1.675754         0.720363
 C         2.513192        -0.736753         1.868476
 C         2.439520         0.596005         1.114071
 O         2.471937         1.695404         2.007627
 H         5.209892        -0.419192        -1.320872
 H         5.329685         1.213453        -0.656705
 H         5.372993        -0.287121         0.418774
 H         2.389663         2.147898        -1.145619
 H         2.118436         0.531913        -2.058410
 H         0.383513         0.684258        -0.148133
 H         2.044111        -1.231868        -1.268264
 H         1.809770        -0.939482         2.680517
 H         3.524081        -0.906917         2.277525
 H         2.222353         2.512846         1.669249
