19
Iteration:  3452
 C         4.794527         0.225422        -0.353719
 C         3.316659         0.311736        -0.290444
 C         2.231440         1.327294        -0.912688
 C         1.355131         0.318123        -0.114294
 C         2.368887        -0.980236        -0.426493
 O         2.370002        -1.726101         0.823580
 C         2.495715        -0.678427         1.905997
 C         2.427529         0.520231         1.068669
 O         2.739739         1.732237         1.722788
 H         5.177049        -0.392068        -1.199377
 H         5.044051         1.178305        -0.707730
 H         5.222347        -0.061596         0.641737
 H         2.306755         2.249696        -0.299712
 H         2.198314         1.380025        -1.967042
 H         0.233334         0.326512        -0.117982
 H         2.204735        -1.583473        -1.254641
 H         1.594643        -0.798911         2.503938
 H         3.420667        -0.976076         2.443475
 H         2.073939         2.385721         1.660015
