19
Iteration:  2740
 C         4.785797         0.221669        -0.392669
 C         3.286215         0.273604        -0.250064
 C         2.254794         0.914880        -1.210982
 C         1.372413         0.303252        -0.085317
 C         2.312529        -0.943953        -0.263778
 O         2.365252        -1.630104         1.001253
 C         2.611072        -0.590932         1.993678
 C         2.443011         0.629918         1.033494
 O         2.566321         1.894552         1.608766
 H         5.235711        -0.602290         0.235033
 H         4.979018         0.053532        -1.460985
 H         5.214453         1.207390        -0.071443
 H         2.273992         1.955843        -1.265373
 H         2.239146         0.383900        -2.188244
 H         0.314819         0.428102         0.067969
 H         2.180782        -1.569211        -1.038737
 H         1.834697        -0.706708         2.764628
 H         3.654261        -0.667977         2.435194
 H         3.472137         1.933934         1.841858
