19
Iteration:  2522
 C         4.850757         0.158733        -0.400555
 C         3.365945         0.279097        -0.252852
 C         2.287907         0.872391        -1.226336
 C         1.415520         0.327114        -0.101657
 C         2.233732        -0.976817        -0.191764
 O         2.341856        -1.625412         1.045377
 C         2.691581        -0.583989         1.992838
 C         2.420316         0.678445         0.964732
 O         2.497519         1.955640         1.656012
 H         5.196146         0.585649        -1.369409
 H         5.414371         0.334981         0.481082
 H         4.978857        -0.964250        -0.367581
 H         2.346854         1.823962        -1.626061
 H         2.453543         0.327254        -2.233466
 H         0.307847         0.197431        -0.052238
 H         2.065170        -1.697205        -0.892157
 H         2.036908        -0.702890         2.864976
 H         3.698407        -0.577253         2.412881
 H         1.982056         2.681766         1.127647
