19
Iteration:  3050charge 0 multiplicity 1
 C         4.769337         0.213621        -0.428213
 C         3.297504         0.299900        -0.298324
 C         2.272270         0.966148        -1.172639
 C         1.402995         0.432816        -0.086540
 C         2.316006        -0.908395        -0.259414
 O         2.450349        -1.701936         0.883057
 C         2.539377        -0.635328         1.926232
 C         2.404110         0.636053         1.049097
 O         2.663520         1.808721         1.826730
 H         5.127548        -0.849450        -0.582598
 H         5.123258         0.798267        -1.354252
 H         5.387074         0.545269         0.443296
 H         2.098337         2.153799        -1.386434
 H         2.095982         0.346953        -2.099956
 H         0.261366         0.493388        -0.017068
 H         2.075955        -1.604073        -1.113653
 H         1.696905        -0.779071         2.756446
 H         3.579276        -0.720840         2.376533
 H         1.825095         2.194891         1.836011
