19
Iteration:   493charge 0 multiplicity 1
 C         4.821634         0.215271        -0.432391
 C         3.367673         0.187919        -0.290733
 C         2.286796         0.817466        -1.300765
 C         1.395070         0.235057        -0.176073
 C         2.321702        -1.061466        -0.097075
 O         2.368344        -1.609268         1.204569
 C         2.486450        -0.449128         2.075244
 C         2.474466         0.691996         0.919908
 O         2.552627         1.963842         1.552302
 H         5.292508        -0.423712         0.357553
 H         5.045839        -0.258019        -1.376726
 H         5.296883         1.237395        -0.425908
 H         2.466278         1.929099        -1.319750
 H         2.270847         0.283663        -2.204655
 H         0.372897         0.426300         0.040506
 H         2.226283        -1.923257        -0.818390
 H         1.662985        -0.286757         2.776262
 H         3.433101        -0.605983         2.623977
 H         2.451564         2.648690         0.840377
