19
Iteration:  4909charge 0 multiplicity 1
 C         4.853962         0.180152        -0.422810
 C         3.256382         0.367894        -0.257930
 C         2.251793         1.217152        -0.976650
 C         1.302490         0.338005        -0.088923
 C         2.275580        -0.903424        -0.335409
 O         2.500229        -1.702270         0.784630
 C         2.548355        -0.751786         1.848865
 C         2.487558         0.543753         1.075115
 O         2.599184         1.788083         1.803356
 H         5.128073        -0.223825        -1.404071
 H         5.445829         1.137014        -0.181899
 H         5.059780        -0.609503         0.330649
 H         2.203797         2.287944        -0.674184
 H         2.190800         0.970539        -2.025171
 H         0.184372         0.336843         0.147390
 H         2.200197        -1.585703        -1.193056
 H         1.719491        -0.954871         2.578317
 H         3.540686        -0.852977         2.364521
 H         2.130828         2.562294         1.513906
