19
Iteration:  4417charge 0 multiplicity 1
 C         4.755706         0.219034        -0.350511
 C         3.281765         0.370179        -0.257920
 C         2.279793         1.169411        -1.012449
 C         1.425989         0.361646        -0.108142
 C         2.300644        -0.876011        -0.356501
 O         2.403412        -1.702242         0.813449
 C         2.483906        -0.749498         1.823283
 C         2.493556         0.571514         1.030444
 O         2.680451         1.686209         1.824938
 H         5.232860        -0.056721        -1.224783
 H         5.247812         1.149112         0.049038
 H         5.031641        -0.491772         0.455179
 H         2.309491         2.239376        -0.807665
 H         2.121578         1.166949        -2.076880
 H         0.330735         0.384967        -0.195418
 H         2.196450        -1.447757        -1.227937
 H         1.612341        -0.669714         2.474654
 H         3.414675        -0.943861         2.405195
 H         2.014014         2.465730         1.687415
