19
Iteration:    87charge 0 multiplicity 1
 C         4.778510         0.094056        -0.373120
 C         3.276245         0.207788        -0.279990
 C         2.164632         0.843823        -1.276912
 C         1.451129         0.227244        -0.067528
 C         2.374791        -1.066274        -0.129104
 O         2.524620        -1.616006         1.190843
 C         2.421225        -0.393278         1.997463
 C         2.455175         0.682500         0.959541
 O         2.567691         2.053650         1.397627
 H         5.148466        -0.494573         0.380076
 H         4.922525        -0.435906        -1.327020
 H         5.383281         1.030034        -0.370930
 H         2.254939         1.978238        -1.310673
 H         2.069879         0.421534        -2.205937
 H         0.369530         0.206446         0.052754
 H         2.278520        -1.823421        -0.899299
 H         1.505145        -0.486725         2.593252
 H         3.177586        -0.364439         2.761236
 H         3.455093         2.169234         1.917149
