19
Iteration:  2801charge 0 multiplicity 1
 C         4.737596         0.203936        -0.478505
 C         3.293619         0.305592        -0.277689
 C         2.284030         1.015986        -1.116768
 C         1.419340         0.230999        -0.091590
 C         2.338855        -0.937062        -0.229713
 O         2.388029        -1.680724         1.017671
 C         2.515328        -0.638363         2.010535
 C         2.503737         0.613361         1.004589
 O         2.562663         1.933489         1.591566
 H         5.407304         0.305050         0.380570
 H         5.064497        -0.772062        -0.878662
 H         5.062180         0.902674        -1.250638
 H         2.252263         2.172659        -0.901290
 H         2.293279         0.869024        -2.193438
 H         0.294896         0.328385        -0.042463
 H         2.137500        -1.651017        -1.223775
 H         1.568121        -0.612224         2.613287
 H         3.412032        -0.726325         2.701799
 H         3.285623         1.952515         2.168687
