19
Iteration:  2360charge 0 multiplicity 1
 C         4.827593         0.096346        -0.444187
 C         3.315882         0.268930        -0.224815
 C         2.324168         0.898096        -1.179936
 C         1.356332         0.312414        -0.079886
 C         2.365088        -0.970380        -0.106658
 O         2.436540        -1.714812         1.085661
 C         2.529824        -0.550518         2.046718
 C         2.429637         0.685401         0.963570
 O         2.492560         2.018013         1.482756
 H         5.444686         0.635429         0.274596
 H         5.098548        -0.977574        -0.472148
 H         5.153918         0.430352        -1.486745
 H         2.266179         1.989201        -1.312313
 H         2.286238         0.415098        -2.046654
 H         0.243970         0.260567        -0.024935
 H         2.145358        -1.739375        -0.932733
 H         1.811437        -0.599904         2.915029
 H         3.564846        -0.550631         2.457726
 H         2.437737         2.750294         0.815744
