19
Iteration:  2480charge 0 multiplicity 1
 C         4.840997         0.146421        -0.445551
 C         3.323465         0.231733        -0.360441
 C         2.314060         0.942906        -1.177032
 C         1.378226         0.250547        -0.101201
 C         2.351541        -0.979488        -0.190424
 O         2.436915        -1.574754         1.169036
 C         2.497219        -0.450867         1.971795
 C         2.464283         0.617594         0.978343
 O         2.499421         1.819437         1.613443
 H         5.182226         0.803682        -1.224149
 H         5.462291         0.256099         0.419649
 H         5.198004        -0.879064        -0.660915
 H         2.201539         2.023763        -1.175866
 H         2.066073         0.724658        -2.353088
 H         0.315531         0.338461        -0.020483
 H         1.962822        -1.691878        -0.933698
 H         1.602408        -0.348231         2.620313
 H         3.382331        -0.530512         2.558560
 H         2.711407         2.624225         1.126046
