19
Iteration:  3495charge 0 multiplicity 1
 C         4.793018         0.230914        -0.339358
 C         3.307813         0.303584        -0.205356
 C         2.330828         1.077832        -1.151504
 C         1.395050         0.374975        -0.047024
 C         2.228904        -0.883738        -0.355876
 O         2.357737        -1.696647         0.692052
 C         2.553617        -0.783050         1.895935
 C         2.485419         0.628333         1.082336
 O         2.590626         1.864093         1.824998
 H         5.109339         0.179260        -1.406768
 H         5.282973         1.065276         0.055258
 H         5.305994        -0.704257         0.093576
 H         2.246831         2.182094        -1.198015
 H         2.191982         0.507764        -2.055317
 H         0.352936         0.563691         0.298569
 H         2.304323        -1.414505        -1.238274
 H         1.738123        -0.810593         2.587780
 H         3.527777        -0.877118         2.308907
 H         2.728839         1.591501         2.697033
