19
Iteration:  2244charge 0 multiplicity 1
 C         4.812766         0.265316        -0.371237
 C         3.340457         0.095814        -0.363472
 C         2.334697         0.929613        -1.188194
 C         1.348432         0.179102        -0.073205
 C         2.271447        -1.071425        -0.166812
 O         2.320877        -1.567693         1.215945
 C         2.574067        -0.434684         1.992614
 C         2.506375         0.592259         0.936391
 O         2.575414         1.953179         1.475637
 H         5.063823        -0.544828         0.326674
 H         5.334356         0.171175        -1.373152
 H         5.076045         1.184787         0.106781
 H         2.254843         2.009644        -1.037675
 H         2.163377         0.686554        -2.362693
 H         0.285689         0.076612         0.108746
 H         2.363399        -1.846827        -0.980245
 H         1.887821        -0.227858         2.778129
 H         3.555829        -0.499705         2.494454
 H         2.515275         2.493802         0.658654
