19
Iteration:   408charge 0 multiplicity 1
 C         4.847663         0.052054        -0.329910
 C         3.265783         0.212472        -0.276621
 C         2.322804         0.787595        -1.331253
 C         1.369419         0.184447        -0.170615
 C         2.296062        -0.943461        -0.085212
 O         2.364086        -1.541646         1.172202
 C         2.676379        -0.416956         1.952852
 C         2.494144         0.693226         0.972696
 O         2.429292         1.982622         1.573457
 H         5.203138        -0.516729         0.565010
 H         5.188614        -0.439371        -1.240045
 H         5.203419         1.029650        -0.291096
 H         2.365333         1.789366        -1.492745
 H         2.298766         0.222747        -2.333517
 H         0.231391         0.191780        -0.085395
 H         2.227292        -1.771939        -0.897419
 H         1.968234        -0.255506         2.796177
 H         3.724592        -0.435859         2.321624
 H         2.722095         2.648959         0.925590
