19
Iteration:  1226
 C         4.824723         0.150271        -0.448190
 C         3.291237         0.192179        -0.280915
 C         2.288374         0.865983        -1.184667
 C         1.375185         0.171488        -0.056511
 C         2.342624        -1.006944        -0.107786
 O         2.458351        -1.582322         1.172638
 C         2.479033        -0.452447         2.084582
 C         2.465067         0.665713         0.964371
 O         2.555876         1.967961         1.409054
 H         5.341236        -0.696192         0.102838
 H         5.070686         0.096244        -1.535851
 H         5.204368         1.010472         0.057438
 H         2.436301         1.951222        -1.238253
 H         2.272414         0.566011        -2.341363
 H         0.194968         0.230885        -0.050598
 H         2.257795        -1.749184        -1.008995
 H         1.498695        -0.505456         2.599560
 H         3.236419        -0.334830         2.861896
 H         2.569230         2.571341         0.576913
