19
Iteration:  2319charge 0 multiplicity 1
 C         4.888795         0.079501        -0.454016
 C         3.350299         0.285312        -0.344198
 C         2.212068         0.959586        -1.188463
 C         1.351777         0.214387        -0.088101
 C         2.297170        -1.030582        -0.155677
 O         2.534507        -1.595774         1.231132
 C         2.438467        -0.418558         1.996358
 C         2.423521         0.630952         0.924716
 O         2.566899         1.862898         1.549256
 H         5.285559         0.340278         0.501379
 H         5.208703        -0.946513        -0.760894
 H         5.236862         0.791684        -1.164013
 H         2.278969         2.104782        -1.143506
 H         2.333438         0.748258        -2.275915
 H         0.354665         0.417280         0.042763
 H         2.155344        -1.790796        -1.030850
 H         1.427034        -0.387522         2.396631
 H         3.209939        -0.371149         2.833779
 H         2.448805         2.514474         0.809898
