19
Iteration:   880
 C         4.801182         0.142196        -0.406267
 C         3.337711         0.128140        -0.377971
 C         2.250501         0.872042        -1.159664
 C         1.382981         0.230428        -0.102199
 C         2.375354        -0.999037        -0.156411
 O         2.344564        -1.637144         1.157409
 C         2.645178        -0.416141         2.031257
 C         2.471029         0.662327         1.006786
 O         2.492381         1.994890         1.496190
 H         5.108286        -0.127374         0.584653
 H         5.054370        -0.696132        -1.144509
 H         5.229573         1.129314        -0.618272
 H         2.457579         1.994731        -1.183082
 H         2.277142         0.480761        -2.148944
 H         0.296988         0.488488        -0.248557
 H         2.259256        -1.827294        -0.746474
 H         1.959183        -0.560157         2.880894
 H         3.692223        -0.358415         2.313570
 H         2.205851         2.657636         0.805776
