19
Iteration:  2993
 C         4.822166         0.168805        -0.399861
 C         3.311503         0.222303        -0.359287
 C         2.300083         1.184793        -1.000662
 C         1.366855         0.338652         0.009394
 C         2.259378        -0.929000        -0.312780
 O         2.421839        -1.664235         0.962268
 C         2.614458        -0.664817         1.959205
 C         2.486085         0.531660         0.997148
 O         2.528619         1.875672         1.484503
 H         5.295810        -0.422533        -1.205191
 H         5.188463         1.213907        -0.406178
 H         5.235560        -0.221271         0.584291
 H         2.395206         2.336601        -0.774944
 H         2.117028         1.079610        -2.120993
 H         0.256525         0.254409         0.306945
 H         1.949679        -1.615198        -1.041536
 H         1.705688        -0.719488         2.703644
 H         3.494257        -0.956392         2.564749
 H         2.332631         1.784540         2.480641
