19
Iteration:  1025
 C         4.778970         0.251868        -0.340100
 C         3.278449         0.133702        -0.298621
 C         2.298154         0.869478        -1.192984
 C         1.411086         0.195703        -0.100033
 C         2.301535        -1.042708        -0.147798
 O         2.319787        -1.581364         1.195079
 C         2.670045        -0.454726         2.010951
 C         2.511028         0.680004         0.994485
 O         2.517722         1.942262         1.384346
 H         5.061700        -0.749054         0.089710
 H         5.117268         0.340265        -1.368373
 H         5.231962         0.978989         0.470883
 H         2.237257         1.952616        -1.203498
 H         2.185511         0.341725        -2.206050
 H         0.258215         0.519484        -0.176821
 H         2.291083        -1.793488        -0.981158
 H         2.059700        -0.654282         2.909921
 H         3.670659        -0.403670         2.446027
 H         2.592942         2.439654         0.614978
