19
Iteration:  2057
 C         4.832417         0.200338        -0.345898
 C         3.265138         0.201003        -0.318109
 C         2.226418         0.774810        -1.333706
 C         1.282652         0.262813        -0.139219
 C         2.332757        -1.003143        -0.148668
 O         2.444099        -1.602593         1.117965
 C         2.504719        -0.450462         2.043665
 C         2.448049         0.717349         1.038498
 O         2.673861         1.950388         1.605785
 H         5.290407         0.024977         0.652597
 H         5.133493        -0.681659        -1.078717
 H         5.291555         1.076563        -0.884097
 H         2.109214         1.805494        -1.480624
 H         2.238145         0.295774        -2.417571
 H         0.226973         0.291293        -0.268794
 H         2.331966        -1.900864        -0.909495
 H         1.656758        -0.577412         2.733367
 H         3.462682        -0.517606         2.659597
 H         2.768862         2.536857         0.839601
