19
Iteration:  2031
 C         4.874915         0.169479        -0.435816
 C         3.319088         0.154928        -0.294934
 C         2.322583         0.882031        -1.193797
 C         1.436743         0.284093        -0.014116
 C         2.285972        -1.078855        -0.155413
 O         2.329761        -1.619026         1.152454
 C         2.614637        -0.410035         1.953652
 C         2.480375         0.688573         0.954566
 O         2.461094         1.936478         1.530989
 H         5.342030        -0.041894         0.542031
 H         5.090095        -0.616238        -1.098946
 H         5.319104         1.056226        -0.959319
 H         2.052315         1.968371        -1.361192
 H         2.290448         0.482675        -2.246011
 H         0.328847         0.286755         0.162790
 H         2.122451        -1.879404        -0.776969
 H         1.730729        -0.384689         2.592568
 H         3.509842        -0.505305         2.579055
 H         2.647563         2.617462         0.842195
