19
Iteration:  4444
 C         4.891491         0.295372        -0.266224
 C         3.275812         0.238862        -0.258596
 C         2.227311         1.298750        -0.934882
 C         1.355387         0.366606        -0.020428
 C         2.303583        -0.910671        -0.396238
 O         2.370114        -1.757268         0.817467
 C         2.468919        -0.806588         1.858477
 C         2.427718         0.544104         1.016088
 O         2.736623         1.746555         1.631137
 H         5.425937         0.566843        -1.307097
 H         5.167108         1.044908         0.557866
 H         5.407379        -0.596666         0.163732
 H         2.474360         2.349499        -0.657762
 H         2.064270         1.388675        -2.038965
 H         0.251050         0.234027         0.053639
 H         2.146536        -1.622563        -1.309334
 H         1.597766        -0.644929         2.538767
 H         3.387556        -1.027509         2.411265
 H         2.074257         2.494304         1.398560
