19
Iteration:  4895
 C         4.842288         0.130300        -0.375562
 C         3.359408         0.260398        -0.317421
 C         2.189685         1.212069        -0.935301
 C         1.412115         0.306825         0.065931
 C         2.249730        -0.795875        -0.396087
 O         2.449388        -1.688031         0.774994
 C         2.625674        -0.732195         1.863897
 C         2.526544         0.570392         1.065409
 O         2.511267         1.779260         1.743840
 H         5.197098         0.103533        -1.394644
 H         5.230845         1.015940         0.103486
 H         5.334127        -0.679950         0.220516
 H         2.350596         2.312748        -0.794897
 H         1.875824         1.222938        -2.011580
 H         0.321630         0.312066         0.074877
 H         2.024590        -1.323198        -1.362203
 H         1.677666        -0.680969         2.518602
 H         3.468327        -0.976449         2.506089
 H         1.793063         2.149758         1.161315
