19
Iteration:   612
 C         4.829430         0.217977        -0.384637
 C         3.311681         0.194247        -0.293006
 C         2.267187         0.769518        -1.232996
 C         1.400243         0.211893        -0.142239
 C         2.321263        -1.051471        -0.163545
 O         2.406544        -1.561667         1.186486
 C         2.501626        -0.416403         1.998530
 C         2.482750         0.652994         0.976901
 O         2.590066         1.942504         1.536990
 H         5.286005        -0.473676         0.344551
 H         5.159749        -0.191967        -1.324022
 H         5.244311         1.286688        -0.322427
 H         2.086051         1.924745        -1.531872
 H         2.201283         0.169801        -2.130259
 H         0.371936         0.396932         0.030277
 H         2.160835        -1.760902        -0.963398
 H         1.620592        -0.205052         2.626604
 H         3.364990        -0.492011         2.689211
 H         2.294783         2.651408         0.879060
