19
Iteration:  1379
 C         4.848280         0.213464        -0.419613
 C         3.334957         0.224840        -0.317754
 C         2.313394         0.750211        -1.243148
 C         1.370681         0.175261        -0.145325
 C         2.262999        -0.979009        -0.118894
 O         2.337892        -1.548396         1.185601
 C         2.590639        -0.453351         1.989753
 C         2.482148         0.697781         1.034001
 O         2.504081         1.929912         1.548567
 H         5.413738        -0.005011         0.470863
 H         5.254654        -0.431792        -1.195666
 H         5.081168         1.093244        -0.872178
 H         2.434998         1.780498        -1.252071
 H         2.420592         0.214501        -2.301222
 H         0.233854         0.146280        -0.018601
 H         2.326409        -1.811214        -0.920416
 H         1.725030        -0.360728         2.724753
 H         3.620582        -0.481073         2.431509
 H         2.674569         2.549432         0.822576
