19
Iteration:   703
 C         4.804932         0.112160        -0.321342
 C         3.289379         0.131478        -0.263683
 C         2.192629         0.918190        -1.246216
 C         1.361305         0.180275        -0.123896
 C         2.278592        -0.947951        -0.114184
 O         2.599901        -1.639114         1.134134
 C         2.492085        -0.412799         2.017668
 C         2.471479         0.680744         0.953068
 O         2.573170         1.992690         1.487068
 H         5.277611        -0.429257         0.556849
 H         5.054895        -0.600523        -1.206840
 H         5.184030         1.079062        -0.557924
 H         2.321225         2.099519        -1.189316
 H         2.127036         0.499475        -2.252250
 H         0.299458         0.232896        -0.129260
 H         2.224720        -1.670816        -1.017663
 H         1.492496        -0.404199         2.490396
 H         3.203805        -0.622341         2.805131
 H         2.470837         2.561757         0.725089
