19
Iteration:  1522charge 0 multiplicity 1
 C         4.844995         0.204256        -0.365536
 C         3.304448         0.188710        -0.312274
 C         2.273440         0.752939        -1.257076
 C         1.337163         0.139553        -0.211772
 C         2.334869        -1.028285        -0.144556
 O         2.321373        -1.553826         1.192054
 C         2.614006        -0.445976         2.039887
 C         2.447606         0.737322         0.937123
 O         2.554064         2.024487         1.602795
 H         5.325199        -0.631410         0.196306
 H         5.020960         0.027698        -1.477867
 H         5.231141         1.171976        -0.153484
 H         2.477545         1.827183        -1.382975
 H         2.266932         0.264472        -2.373844
 H         0.305014         0.025660        -0.202598
 H         2.275179        -1.814372        -0.822033
 H         1.866552        -0.636013         2.878596
 H         3.649184        -0.622057         2.451791
 H         2.791651         2.627303         0.923312
