19
Iteration:  2418charge 0 multiplicity 1
 C         4.847722         0.230507        -0.315133
 C         3.344820         0.224923        -0.298249
 C         2.244047         0.898247        -1.259037
 C         1.331690         0.268611        -0.132435
 C         2.255320        -1.045575        -0.223277
 O         2.394164        -1.630950         1.136276
 C         2.552324        -0.495462         2.018973
 C         2.479246         0.649288         0.950814
 O         2.635577         1.895489         1.578527
 H         5.174161         1.262346        -0.474859
 H         5.318369        -0.090229         0.651357
 H         5.089981        -0.312083        -1.197181
 H         2.159193         1.992135        -1.398458
 H         2.149212         0.488587        -2.156247
 H         0.286702         0.425894        -0.095005
 H         1.976303        -1.955876        -0.845528
 H         1.729328        -0.408100         2.755829
 H         3.564753        -0.591711         2.538713
 H         2.519811         2.532362         0.863547
