19
Iteration:  1347
 C         4.814960         0.192535        -0.334319
 C         3.307283         0.215029        -0.331633
 C         2.227099         0.898315        -1.178600
 C         1.446787         0.209641        -0.064609
 C         2.339359        -1.023471        -0.148098
 O         2.436062        -1.696719         1.231096
 C         2.461653        -0.448047         1.966796
 C         2.435930         0.647975         0.985561
 O         2.629576         1.966854         1.385586
 H         5.392147        -0.073498         0.530024
 H         5.015538        -0.404651        -1.224884
 H         5.113839         1.162173        -0.620427
 H         2.431274         1.878963        -1.099838
 H         2.139507         0.691068        -2.307615
 H         0.247919         0.367011        -0.083948
 H         2.332428        -1.907256        -0.812150
 H         1.534185        -0.391294         2.613041
 H         3.264656        -0.127508         2.648960
 H         2.189830         2.519012         0.728082
