19
Iteration:  1148charge 0 multiplicity 1
 C         4.875708         0.176629        -0.401153
 C         3.331961         0.199764        -0.282067
 C         2.256693         0.852400        -1.201624
 C         1.393190         0.254913        -0.120508
 C         2.251319        -1.041111        -0.111151
 O         2.323971        -1.652742         1.190675
 C         2.677741        -0.452644         1.985477
 C         2.462857         0.683409         0.925928
 O         2.469964         1.992405         1.511690
 H         5.322991         0.018423         0.602973
 H         5.143939        -0.676009        -1.026006
 H         5.197089         1.099581        -0.854238
 H         2.489102         1.871373        -1.202052
 H         2.242612         0.406832        -2.230352
 H         0.236494         0.143736        -0.037875
 H         2.492865        -1.799669        -0.847790
 H         2.044629        -0.417927         2.827178
 H         3.696330        -0.397239         2.241970
 H         2.529511         2.583125         0.731300
