19
Iteration:  4972
 C         4.867040         0.473296        -0.465454
 C         3.377289         0.298456        -0.351341
 C         2.228246         1.174791        -1.041265
 C         1.421147         0.412857         0.023721
 C         2.286780        -0.956085        -0.308167
 O         2.237769        -1.827220         0.856592
 C         2.486221        -0.811737         1.828744
 C         2.593477         0.599787         1.054703
 O         2.575506         1.718636         1.865035
 H         5.358544        -0.013496        -1.273171
 H         5.084381         1.487531        -0.738530
 H         5.443252         0.169323         0.452853
 H         2.486222         2.262941        -1.250390
 H         1.988000         0.646789        -2.017890
 H         0.350214         0.236920         0.279141
 H         2.229053        -1.604062        -1.226375
 H         1.585852        -0.666627         2.502763
 H         3.351340        -1.058005         2.436985
 H         3.083832         2.313492         1.376964
