19
Iteration:  4818charge 0 multiplicity 1
 C         4.845356         0.396052        -0.403438
 C         3.334480         0.337295        -0.297614
 C         2.169461         1.125670        -1.178902
 C         1.373031         0.368630        -0.112468
 C         2.268244        -0.877885        -0.274187
 O         2.427699        -1.801516         0.870804
 C         2.415590        -0.709031         1.911692
 C         2.578092         0.580275         0.976894
 O         2.667246         1.672008         1.916168
 H         5.060742         1.081614        -1.239658
 H         5.231666         0.648530         0.574782
 H         5.254381        -0.611459        -0.653203
 H         2.167208         2.215732        -1.045961
 H         2.008740         0.741361        -2.231762
 H         0.344521         0.200149         0.154900
 H         1.968876        -1.411194        -1.185635
 H         1.453764        -0.733111         2.536631
 H         3.227229        -0.855186         2.646272
 H         3.060736         2.477311         1.366354
