19
Iteration:    25
 C         4.871920         0.115428        -0.470970
 C         3.339402         0.163977        -0.294739
 C         2.290092         0.870768        -1.233915
 C         1.411163         0.225241        -0.141090
 C         2.265431        -1.035347        -0.112927
 O         2.305081        -1.590880         1.224249
 C         2.626979        -0.438619         2.078819
 C         2.524399         0.666795         0.997107
 O         2.501239         2.006607         1.459487
 H         5.374626        -0.357686         0.512635
 H         5.250029        -0.410853        -1.362823
 H         5.253607         1.110851        -0.567454
 H         2.334604         1.914736        -1.211974
 H         2.309514         0.436664        -2.341601
 H         0.326295         0.303935        -0.096874
 H         2.162208        -1.812537        -0.870935
 H         1.775118        -0.303072         2.734206
 H         3.666125        -0.532250         2.469751
 H         1.794557         2.527610         0.909593
