19
Iteration:  2207charge 0 multiplicity 1
 C         4.809585         0.104473        -0.388657
 C         3.259869         0.277809        -0.306770
 C         2.248651         0.854050        -1.240778
 C         1.334870         0.327092        -0.064957
 C         2.327643        -1.006402        -0.130073
 O         2.580614        -1.663108         1.186300
 C         2.380376        -0.536051         2.059686
 C         2.435351         0.690558         0.953907
 O         2.621687         2.021855         1.448905
 H         5.075199        -0.920142        -0.241774
 H         5.219102         0.282341        -1.338467
 H         5.416608         0.667130         0.345437
 H         2.436338         1.997776        -1.561995
 H         2.167302         0.315139        -2.194896
 H         0.268592         0.221917         0.030417
 H         2.513482        -1.856262        -0.820616
 H         1.505747        -0.672834         2.717355
 H         3.354399        -0.529977         2.567093
 H         2.356109         2.569368         0.726480
