19
Iteration:  1907
 C         4.827769         0.225348        -0.375255
 C         3.263203         0.152767        -0.250226
 C         2.287832         0.886944        -1.203511
 C         1.359768         0.164472        -0.100469
 C         2.342670        -1.011214        -0.129724
 O         2.332787        -1.615516         1.180533
 C         2.636187        -0.496766         2.052581
 C         2.392714         0.646474         0.983250
 O         2.596283         2.035843         1.404279
 H         5.157966        -0.737888        -0.028197
 H         5.139784         0.335623        -1.410163
 H         5.362458         0.943469         0.216538
 H         2.087481         2.054238        -1.188851
 H         2.323450         0.400966        -2.133348
 H         0.254278         0.069759        -0.434590
 H         2.253822        -1.741379        -0.953218
 H         1.865304        -0.564110         2.833976
 H         3.634996        -0.495529         2.423446
 H         2.831211         2.541839         0.579828
