19
Iteration:  4912charge 0 multiplicity 1
 C         4.834749         0.204606        -0.422498
 C         3.235844         0.357802        -0.255815
 C         2.244579         1.216051        -0.993536
 C         1.329543         0.348858        -0.109467
 C         2.284959        -0.911193        -0.329959
 O         2.506649        -1.717999         0.787944
 C         2.531111        -0.752678         1.864039
 C         2.460448         0.568469         1.076680
 O         2.618259         1.771530         1.816563
 H         4.987341        -0.303619        -1.425666
 H         5.474590         1.096300        -0.186981
 H         5.041423        -0.538909         0.330886
 H         2.176960         2.265449        -0.752503
 H         2.303275         1.036234        -2.080183
 H         0.273509         0.348484         0.158341
 H         2.264067        -1.575999        -1.171599
 H         1.793673        -0.987994         2.588677
 H         3.531878        -0.816563         2.340922
 H         2.206480         2.578145         1.544960
