19
Iteration:  2022charge 0 multiplicity 1
 C         4.981618         0.135556        -0.469430
 C         3.314449         0.163533        -0.314092
 C         2.304657         0.924875        -1.170577
 C         1.351507         0.205151        -0.062745
 C         2.272435        -1.081650        -0.123339
 O         2.347345        -1.604065         1.170222
 C         2.565886        -0.417379         2.001502
 C         2.497085         0.647386         0.981674
 O         2.431609         1.974312         1.518574
 H         5.599353        -0.133150         0.433737
 H         5.164423        -0.681590        -1.230215
 H         5.348934         1.150773        -0.888418
 H         2.395379         1.981072        -0.996695
 H         2.230235         0.682646        -2.323096
 H         0.341178         0.486628        -0.059356
 H         2.027707        -1.712337        -0.981061
 H         1.892367        -0.378138         2.861829
 H         3.657096        -0.436791         2.320967
 H         2.521867         2.530222         0.709758
