19
Iteration:  4360charge 0 multiplicity 1
 C         4.843310         0.141470        -0.533090
 C         3.353738         0.354749        -0.290698
 C         2.354782         1.313307        -1.067772
 C         1.477762         0.365684        -0.074514
 C         2.332088        -0.904030        -0.375517
 O         2.325488        -1.721344         0.838757
 C         2.500825        -0.668192         1.940218
 C         2.512930         0.548854         1.030805
 O         2.408329         1.647283         1.941663
 H         5.067718        -0.571819        -1.326544
 H         5.249798         1.055520        -0.817730
 H         5.390667        -0.155884         0.332827
 H         2.500665         2.261725        -0.637434
 H         2.117035         1.153323        -2.133250
 H         0.414218         0.434034         0.113514
 H         2.315964        -1.506430        -1.369173
 H         1.737138        -0.731224         2.720208
 H         3.514682        -0.786579         2.399823
 H         2.540913         2.545104         1.655655
