19
Iteration:  4380charge 0 multiplicity 1
 C         4.845562         0.190461        -0.503505
 C         3.367512         0.288229        -0.259266
 C         2.377646         1.087184        -1.105871
 C         1.434958         0.463559        -0.066163
 C         2.246553        -0.787829        -0.295703
 O         2.409597        -1.655717         0.777785
 C         2.559916        -0.744600         1.793408
 C         2.471154         0.606189         1.116815
 O         2.429046         1.662851         2.019486
 H         4.970534        -0.588747        -1.342085
 H         5.286721         1.119175        -0.667848
 H         5.225179        -0.223852         0.398464
 H         2.401453         2.183981        -1.112273
 H         2.317783         0.525145        -2.088871
 H         0.351296         0.568677        -0.069243
 H         2.043729        -1.283625        -1.347806
 H         1.684433        -0.744980         2.511547
 H         3.459834        -1.105094         2.336818
 H         2.303462         2.537944         1.452514
