19
Iteration:  3308
 C         4.826138         0.259238        -0.379637
 C         3.266934         0.314178        -0.320702
 C         2.180252         1.158992        -1.078832
 C         1.367910         0.399189        -0.023016
 C         2.254058        -0.885463        -0.354226
 O         2.486338        -1.699780         0.847722
 C         2.536029        -0.707281         1.890908
 C         2.481697         0.570816         0.985207
 O         2.638769         1.688729         1.867086
 H         5.111542         0.543842        -1.437632
 H         5.213101         0.855523         0.460252
 H         5.110148        -0.884567        -0.268212
 H         2.300371         2.253972        -0.943276
 H         1.947545         0.901613        -2.166648
 H         0.209943         0.430076         0.010551
 H         2.062852        -1.648961        -1.116318
 H         1.605971        -0.780591         2.510489
 H         3.535590        -0.885326         2.389868
 H         3.050883         2.414547         1.464608
