19
Iteration:  3920charge 0 multiplicity 1
 C         4.820399         0.249415        -0.258588
 C         3.285091         0.238792        -0.334279
 C         2.289376         1.137939        -1.000907
 C         1.358081         0.428777        -0.078400
 C         2.256556        -0.884506        -0.396399
 O         2.416514        -1.705961         0.839428
 C         2.479332        -0.703267         1.854968
 C         2.469115         0.553593         1.030872
 O         2.694989         1.696156         1.819671
 H         5.186409         0.826688        -1.175750
 H         5.225065         0.854600         0.533398
 H         5.265600        -0.754585        -0.486271
 H         2.356302         2.221635        -0.902988
 H         2.129482         1.109940        -2.181797
 H         0.248171         0.495077        -0.114314
 H         2.100632        -1.398304        -1.369749
 H         1.622213        -0.860147         2.556941
 H         3.393209        -0.664632         2.483945
 H         2.301372         2.409715         1.281962
