19
Iteration:  1247
 C         4.849229         0.157274        -0.446143
 C         3.319043         0.173962        -0.228293
 C         2.341929         0.883199        -1.200359
 C         1.451672         0.266873        -0.117953
 C         2.320773        -1.086484        -0.105982
 O         2.421614        -1.666016         1.223828
 C         2.536866        -0.435164         2.003539
 C         2.471316         0.676091         0.972987
 O         2.422009         2.014919         1.442269
 H         5.255460        -0.849626        -0.165861
 H         4.911840         0.181111        -1.532106
 H         5.405690         0.841039         0.117810
 H         2.141506         1.882156        -1.319607
 H         1.940678         0.473924        -2.254332
 H         0.249485         0.504322         0.033651
 H         2.118173        -1.814479        -1.011643
 H         1.894393        -0.154952         2.862458
 H         3.578239        -0.440114         2.388197
 H         2.618552         2.510294         0.674463
