19
Iteration:  1974charge 0 multiplicity 1
 C         4.838636         0.067574        -0.465938
 C         3.338964         0.201444        -0.234095
 C         2.298512         0.823108        -1.212204
 C         1.379205         0.266844        -0.106710
 C         2.283856        -0.982828        -0.119441
 O         2.507215        -1.627014         1.142761
 C         2.515753        -0.432200         1.981920
 C         2.480209         0.743671         0.947917
 O         2.509338         1.990547         1.540891
 H         5.164829        -0.759601         0.172615
 H         5.024824        -0.279482        -1.439716
 H         5.420341         0.925755        -0.167647
 H         2.073561         1.973708        -1.307189
 H         2.166105         0.247279        -2.086524
 H         0.249359         0.090772         0.069132
 H         2.250673        -1.673103        -0.937185
 H         1.529472        -0.455752         2.487039
 H         3.328279        -0.428905         2.693184
 H         2.016819         2.642809         1.059591
