19
Iteration:  3593
 C         4.764525         0.176071        -0.332922
 C         3.288418         0.322080        -0.265266
 C         2.279772         1.127171        -1.062025
 C         1.386324         0.332708        -0.123460
 C         2.283213        -0.883197        -0.334581
 O         2.369945        -1.685885         0.793571
 C         2.509441        -0.656330         1.874046
 C         2.507564         0.577858         1.076436
 O         2.661878         1.721489         1.853063
 H         5.271411         0.819836        -1.092590
 H         5.296044         0.611431         0.473276
 H         5.203228        -0.860502        -0.539830
 H         2.286135         2.274291        -0.952914
 H         2.174132         0.872090        -2.174693
 H         0.275641         0.323092        -0.044828
 H         2.298532        -1.299025        -1.296757
 H         1.554690        -0.681718         2.437344
 H         3.371889        -0.725252         2.525900
 H         2.630986         2.475502         1.310061
