19
Iteration:  3294charge 0 multiplicity 1
 C         4.742713         0.238077        -0.420187
 C         3.259795         0.325641        -0.294391
 C         2.213489         1.136006        -1.137532
 C         1.311069         0.271626        -0.182927
 C         2.269767        -0.883792        -0.317602
 O         2.410727        -1.699140         0.858290
 C         2.581267        -0.646084         1.827633
 C         2.468816         0.629933         1.107176
 O         2.694393         1.676963         1.972309
 H         5.203823         0.862851        -1.141441
 H         5.261880         0.739487         0.362780
 H         5.143544        -0.748979        -0.409879
 H         2.077207         2.173445        -0.970496
 H         2.223141         0.838948        -2.234376
 H         0.296591         0.219303         0.001756
 H         2.279149        -1.317617        -1.379879
 H         1.928536        -0.697515         2.700549
 H         3.507374        -0.542295         2.338060
 H         3.331617         2.305050         1.437460
