19
Iteration:  2938charge 0 multiplicity 1
 C         4.842290         0.276522        -0.492530
 C         3.317041         0.247183        -0.322641
 C         2.208779         0.956359        -1.241179
 C         1.418462         0.333547        -0.125577
 C         2.258809        -0.949231        -0.269072
 O         2.428881        -1.606102         1.007670
 C         2.455602        -0.572292         1.974888
 C         2.473233         0.605240         1.032791
 O         2.615765         1.787491         1.786051
 H         5.239895         0.955838        -1.229529
 H         5.121293         0.796776         0.449492
 H         5.256373        -0.763700        -0.387849
 H         2.292694         2.066205        -1.105088
 H         1.974800         0.529137        -2.276661
 H         0.284950         0.263081        -0.035778
 H         2.098455        -1.587955        -1.088612
 H         1.476626        -0.611749         2.576127
 H         3.358366        -0.727336         2.577089
 H         3.592425         1.755435         2.114450
