19
Iteration:  1145charge 0 multiplicity 1
 C         4.871557         0.176249        -0.416764
 C         3.293257         0.220049        -0.284382
 C         2.269908         0.872684        -1.171202
 C         1.408988         0.237797        -0.133424
 C         2.249831        -1.059502        -0.101293
 O         2.316873        -1.646536         1.199809
 C         2.670506        -0.464046         1.987101
 C         2.495128         0.664178         0.931612
 O         2.458320         1.986205         1.499510
 H         5.247473         0.003799         0.545165
 H         5.196557        -0.651866        -1.000712
 H         5.372632         1.071714        -0.881575
 H         2.462245         1.906073        -1.349730
 H         2.269971         0.460167        -2.181645
 H         0.315905         0.154658        -0.077265
 H         2.437830        -1.743626        -0.882071
 H         2.019757        -0.432400         2.889706
 H         3.731367        -0.286153         2.268527
 H         2.523646         2.658986         0.723529
