19
Iteration:   596charge 0 multiplicity 1
 C         4.794402         0.153781        -0.372294
 C         3.324278         0.195614        -0.320121
 C         2.269553         0.871306        -1.301326
 C         1.355415         0.163811        -0.075674
 C         2.275640        -1.015054        -0.074996
 O         2.513409        -1.649945         1.161075
 C         2.428975        -0.479289         2.071304
 C         2.495360         0.751873         0.930543
 O         2.615054         2.031891         1.479507
 H         5.153687        -0.576305         0.363906
 H         5.252931        -0.107481        -1.374591
 H         5.221255         1.074652        -0.049723
 H         2.477781         1.847236        -1.275620
 H         2.163243         0.706933        -2.449312
 H         0.182682        -0.111683        -0.043817
 H         2.222183        -1.807318        -0.895304
 H         1.483536        -0.662435         2.641353
 H         3.322265        -0.406125         2.738736
 H         2.250404         2.576757         0.785029
