19
Iteration:    38charge 0 multiplicity 1
 C         4.805395         0.115118        -0.497559
 C         3.352729         0.146429        -0.286778
 C         2.368045         0.818616        -1.161300
 C         1.423038         0.281175        -0.036893
 C         2.377862        -1.012758        -0.067904
 O         2.303679        -1.636644         1.228936
 C         2.564368        -0.395796         1.908367
 C         2.438571         0.722672         0.894215
 O         2.456669         1.960166         1.490321
 H         5.330501        -0.344662         0.497977
 H         5.107253        -0.556091        -1.342120
 H         5.175411         1.155458        -0.576470
 H         2.489656         1.911951        -1.290287
 H         2.187385         0.412562        -2.300051
 H         0.344358         0.331354         0.183741
 H         2.320730        -1.751564        -0.895478
 H         2.016901        -0.278360         2.891950
 H         3.606215        -0.410498         2.464694
 H         2.390575         2.593276         0.812482
