19
Iteration:  4391charge 0 multiplicity 1
 C         4.838274         0.159726        -0.443613
 C         3.336309         0.355738        -0.213395
 C         2.348500         1.043987        -1.144394
 C         1.456074         0.482573        -0.052173
 C         2.239893        -0.825864        -0.366514
 O         2.428996        -1.705254         0.696322
 C         2.496527        -0.742805         1.917105
 C         2.426897         0.607083         1.106947
 O         2.516368         1.705311         2.004928
 H         5.223519        -0.361860        -1.393484
 H         5.258590         1.109284        -0.582716
 H         5.407371        -0.272283         0.338965
 H         2.401922         2.133689        -1.299563
 H         2.048800         0.676161        -2.180904
 H         0.388693         0.670154        -0.037031
 H         2.066722        -1.415102        -1.383603
 H         1.809406        -1.087225         2.725814
 H         3.549638        -0.662073         2.275952
 H         2.112174         2.581371         1.651399
