19
Iteration:  4943
 C         4.788657         0.342452        -0.469818
 C         3.284832         0.318234        -0.268427
 C         2.253434         1.090601        -1.082271
 C         1.295030         0.348432        -0.145440
 C         2.271389        -0.877572        -0.331734
 O         2.445771        -1.634220         0.822719
 C         2.480195        -0.712805         1.873013
 C         2.504797         0.603577         1.069914
 O         2.658904         1.600431         1.977217
 H         5.082511        -0.284468        -1.337353
 H         5.275988         1.396274        -0.578083
 H         5.320180         0.005654         0.429182
 H         2.313441         2.160780        -1.281266
 H         2.309371         0.712995        -2.105420
 H         0.178941         0.271113        -0.019169
 H         2.374564        -1.532308        -1.179283
 H         1.592643        -0.747657         2.531461
 H         3.400657        -0.873745         2.511352
 H         3.037254         2.413691         1.468348
