19
Iteration:  2187
 C         4.775099         0.038822        -0.411735
 C         3.322773         0.138784        -0.296087
 C         2.243211         0.775871        -1.268910
 C         1.438012         0.251088        -0.074484
 C         2.327344        -0.948637        -0.139603
 O         2.558017        -1.554237         1.124112
 C         2.469336        -0.382429         1.995469
 C         2.470027         0.703406         0.965545
 O         2.514996         1.995505         1.608926
 H         5.141330        -0.962711        -0.287255
 H         5.178000         0.361689        -1.373646
 H         5.266535         0.585926         0.389410
 H         1.980439         1.880161        -1.390173
 H         2.097584         0.344430        -2.360487
 H         0.411580         0.268455         0.009431
 H         2.114439        -1.747732        -0.977259
 H         1.479430        -0.403770         2.345742
 H         3.198214        -0.508730         2.831078
 H         2.525026         2.551052         0.825779
