19
Iteration:   242charge 0 multiplicity 1
 C         4.746211         0.075820        -0.409639
 C         3.302369         0.147262        -0.278166
 C         2.263041         0.945393        -1.201808
 C         1.481305         0.220412        -0.084547
 C         2.353116        -1.071287        -0.133831
 O         2.446626        -1.651589         1.219883
 C         2.458481        -0.413302         2.009555
 C         2.499359         0.705863         0.989828
 O         2.485497         2.035269         1.369964
 H         5.039094        -0.313182         0.547462
 H         5.066293        -0.616465        -1.134723
 H         5.131663         1.046000        -0.562132
 H         2.293705         1.957803        -1.191152
 H         2.115099         0.551725        -2.218370
 H         0.382588         0.243960         0.099711
 H         2.522174        -1.784948        -1.020662
 H         1.712650        -0.372934         2.802665
 H         3.436871        -0.309173         2.472801
 H         3.236732         2.483814         1.045804
