19
Iteration:  4202charge 0 multiplicity 1
 C         4.862371         0.141773        -0.439629
 C         3.362538         0.349482        -0.261542
 C         2.293299         1.286346        -1.011115
 C         1.467149         0.339951        -0.119537
 C         2.321732        -0.921956        -0.362444
 O         2.390870        -1.714943         0.863454
 C         2.446626        -0.714222         1.851256
 C         2.515094         0.585122         1.094108
 O         2.471457         1.721000         1.843320
 H         5.111926         0.604789        -1.361865
 H         5.513081         0.661910         0.194774
 H         4.926849        -0.961016        -0.561690
 H         2.257977         2.354999        -0.739464
 H         2.112292         1.094518        -2.048377
 H         0.336877         0.339309        -0.090002
 H         1.994909        -1.584645        -1.147776
 H         1.511689        -0.584819         2.470087
 H         3.290810        -0.989106         2.522995
 H         3.023076         2.507083         1.418404
