19
Iteration:  1490
 C         4.847042         0.160916        -0.317849
 C         3.313300         0.204943        -0.315948
 C         2.260827         0.797970        -1.197386
 C         1.360590         0.280902        -0.096845
 C         2.304840        -1.022030        -0.119775
 O         2.411447        -1.594673         1.194944
 C         2.583628        -0.386547         1.981415
 C         2.518179         0.677925         0.871592
 O         2.509208         1.896826         1.490312
 H         5.259699        -0.773657         0.026194
 H         5.016625         0.224118        -1.401623
 H         5.330161         0.976313         0.096437
 H         2.567232         1.814501        -1.359926
 H         2.088808         0.175133        -2.236915
 H         0.265124         0.312947        -0.010656
 H         2.125916        -1.759378        -0.826018
 H         1.661554        -0.389240         2.654717
 H         3.528179        -0.255341         2.570975
 H         2.268445         2.617020         0.840733
