19
Iteration:  1895charge 0 multiplicity 1
 C         4.775436         0.203390        -0.362238
 C         3.360540         0.214187        -0.324153
 C         2.266332         0.852604        -1.146812
 C         1.441907         0.204168        -0.073307
 C         2.382935        -1.009555        -0.152717
 O         2.266181        -1.634960         1.205259
 C         2.611010        -0.507447         2.001683
 C         2.452418         0.676290         1.027499
 O         2.543645         1.979182         1.353030
 H         5.321021        -0.575884         0.055645
 H         5.135114         0.373591        -1.385754
 H         4.945825         1.105266         0.150663
 H         2.454079         2.034737        -1.238010
 H         2.138256         0.619389        -2.146483
 H         0.293377         0.032619         0.036690
 H         2.094942        -1.848815        -0.881351
 H         1.972213        -0.316974         2.865999
 H         3.590813        -0.620824         2.395257
 H         2.707834         2.430091         0.553481
