19
Iteration:   511
 C         4.834831         0.127120        -0.438334
 C         3.343779         0.230056        -0.261577
 C         2.383902         0.761950        -1.304983
 C         1.426984         0.257093        -0.112114
 C         2.243779        -0.994354        -0.143328
 O         2.333461        -1.543165         1.199056
 C         2.621681        -0.396971         1.980893
 C         2.474415         0.689046         0.990137
 O         2.451920         1.882667         1.572848
 H         5.229211        -0.515497         0.308239
 H         5.155479        -0.050926        -1.480725
 H         5.177063         1.187005        -0.096938
 H         2.088165         1.885551        -1.406304
 H         2.291950        -0.036821        -2.111412
 H         0.338076        -0.008561        -0.240315
 H         2.173849        -1.668733        -0.905027
 H         1.838919        -0.282000         2.755866
 H         3.614924        -0.229835         2.435983
 H         2.671585         2.547657         0.845362
