19
Iteration:  4216
 C         4.860965         0.179679        -0.454431
 C         3.374225         0.284656        -0.296979
 C         2.305340         1.242557        -0.965528
 C         1.470193         0.385858         0.019122
 C         2.256162        -0.865197        -0.353068
 O         2.354520        -1.779704         0.807889
 C         2.448734        -0.708525         1.948761
 C         2.585116         0.523825         0.994832
 O         2.428227         1.767101         1.748767
 H         5.344315         0.763266        -1.287061
 H         5.187336         0.572136         0.477023
 H         5.353553        -0.768424        -0.441594
 H         2.324671         2.278087        -0.669904
 H         2.261095         1.213054        -2.094804
 H         0.462092         0.540528         0.416624
 H         2.297027        -1.380780        -1.426491
 H         1.526005        -0.796239         2.526327
 H         3.316158        -0.795539         2.593558
 H         2.890015         2.394851         1.258845
