19
Iteration:  3517
 C         4.828051         0.204442        -0.406151
 C         3.323827         0.352399        -0.303236
 C         2.304495         1.145961        -1.111681
 C         1.412495         0.448265        -0.128206
 C         2.360775        -0.882595        -0.327268
 O         2.312426        -1.735352         0.875863
 C         2.546305        -0.739477         1.872257
 C         2.407542         0.627608         1.066006
 O         2.528794         1.727474         1.846470
 H         5.295884         0.504692        -1.372527
 H         5.301424         0.785016         0.332851
 H         5.319611        -0.803597        -0.290681
 H         2.267597         2.255668        -0.949967
 H         2.098228         0.772980        -2.117488
 H         0.328143         0.220215        -0.188033
 H         2.070392        -1.421415        -1.169163
 H         1.786482        -0.592905         2.620847
 H         3.529473        -0.777951         2.263216
 H         3.433957         1.647787         2.346081
