19
Iteration:  4302
 C         4.873027         0.291793        -0.272351
 C         3.287416         0.328332        -0.314464
 C         2.240023         1.105498        -1.122087
 C         1.358733         0.484754         0.014244
 C         2.267525        -0.901174        -0.314372
 O         2.416777        -1.743001         0.776005
 C         2.461974        -0.792431         1.807101
 C         2.517057         0.555007         1.028633
 O         2.667845         1.724431         1.858099
 H         5.281674         0.087321        -1.284241
 H         5.120330         1.267097         0.099670
 H         5.145174        -0.426886         0.483053
 H         2.565101         2.149997        -1.154644
 H         2.072301         0.874617        -2.183151
 H         0.246256         0.582020         0.020849
 H         1.966933        -1.463862        -1.236858
 H         1.477722        -0.897133         2.339399
 H         3.288547        -0.935255         2.534182
 H         2.521468         2.533064         1.291445
