19
Iteration:  4650
 C         4.866416         0.406489        -0.422974
 C         3.339336         0.298630        -0.252568
 C         2.291102         1.196253        -0.926049
 C         1.402821         0.364643        -0.025343
 C         2.300584        -0.934768        -0.419490
 O         2.304092        -1.755548         0.804760
 C         2.447579        -0.766858         1.899026
 C         2.470018         0.512530         1.056588
 O         2.657533         1.760297         1.693475
 H         5.186118        -0.295005        -1.207556
 H         5.218866         1.388482        -0.775848
 H         5.412317         0.064358         0.447935
 H         2.219646         2.317318        -0.717779
 H         2.087154         1.002527        -2.027920
 H         0.295328         0.441477         0.025084
 H         2.273809        -1.594306        -1.351372
 H         1.677606        -0.793767         2.745427
 H         3.481824        -0.951962         2.326717
 H         2.449405         1.760448         2.618795
