19
Iteration:  3815charge 0 multiplicity 1
 C         4.900939         0.201876        -0.360487
 C         3.344873         0.378786        -0.308948
 C         2.220820         1.138185        -1.109322
 C         1.375688         0.420839        -0.052490
 C         2.366819        -0.839200        -0.413669
 O         2.335149        -1.743305         0.787171
 C         2.454442        -0.799879         1.896248
 C         2.456666         0.600115         1.082708
 O         2.668833         1.753644         1.888094
 H         5.208428        -0.711585        -0.906794
 H         5.583642         1.002209        -0.603166
 H         5.222168         0.120630         0.655350
 H         2.125436         2.255033        -1.017331
 H         2.066030         0.766618        -2.064177
 H         0.328585         0.531269         0.109502
 H         2.129724        -1.435638        -1.341219
 H         1.530587        -0.826368         2.456365
 H         3.272447        -1.156776         2.516891
 H         2.134190         2.421817         1.555107
