19
Iteration:  4701
 C         4.785998         0.169126        -0.425055
 C         3.310322         0.279741        -0.249027
 C         2.330402         1.177992        -1.115617
 C         1.382996         0.399068        -0.006200
 C         2.269488        -0.786015        -0.305784
 O         2.524599        -1.712895         0.739510
 C         2.519386        -0.784879         1.840568
 C         2.400843         0.569938         1.113533
 O         2.585242         1.772015         1.847979
 H         5.026053         0.036395        -1.464675
 H         5.384406         1.068369        -0.040553
 H         5.319352        -0.718488         0.031007
 H         2.257076         2.273747        -0.945443
 H         2.118317         0.788277        -2.088369
 H         0.289965         0.200339         0.258181
 H         2.050275        -1.359955        -1.224571
 H         1.692396        -0.866104         2.516517
 H         3.441184        -0.762655         2.426291
 H         1.781478         2.435610         1.874814
