19
Iteration:  1992charge 0 multiplicity 1
 C         4.737178         0.071372        -0.467950
 C         3.289437         0.227628        -0.276562
 C         2.366375         0.947885        -1.206976
 C         1.433986         0.214974        -0.067594
 C         2.420907        -1.053892        -0.131207
 O         2.402459        -1.587810         1.169628
 C         2.539715        -0.432493         2.036605
 C         2.452809         0.628699         1.021737
 O         2.477261         1.975758         1.477629
 H         5.289714        -0.554271         0.234342
 H         4.783686        -0.488543        -1.492910
 H         5.260107         1.033884        -0.574356
 H         2.414245         2.032003        -1.151995
 H         2.381026         0.581471        -2.279907
 H         0.381873         0.403933        -0.095390
 H         2.259791        -1.752389        -1.085044
 H         1.802388        -0.392307         2.857009
 H         3.550740        -0.425576         2.509422
 H         2.018286         2.451981         0.810389
