19
Iteration:  1083
 C         4.765974         0.120030        -0.445730
 C         3.279430         0.192428        -0.257014
 C         2.272303         0.838161        -1.352850
 C         1.389650         0.213483        -0.137275
 C         2.293118        -0.973211        -0.100182
 O         2.574209        -1.575921         1.182831
 C         2.407184        -0.454552         2.057332
 C         2.518133         0.684841         1.007897
 O         2.569315         1.970029         1.547174
 H         5.292655        -0.646413         0.275472
 H         5.008796        -0.289526        -1.445456
 H         5.299443         1.046642        -0.327512
 H         2.379270         1.927810        -1.458461
 H         2.150604         0.245415        -2.299782
 H         0.249250         0.200197         0.027055
 H         2.326056        -1.628373        -0.939909
 H         1.472245        -0.617917         2.528910
 H         3.181273        -0.405846         2.773254
 H         2.343767         2.757794         0.903577
