19
Iteration:  1782charge 0 multiplicity 1
 C         4.854783         0.105818        -0.413741
 C         3.300434         0.156575        -0.281261
 C         2.295868         0.915180        -1.126463
 C         1.427287         0.289091        -0.087673
 C         2.273991        -1.021103        -0.139667
 O         2.415263        -1.663053         1.184411
 C         2.584556        -0.426547         1.971987
 C         2.467425         0.693684         0.936482
 O         2.419674         1.938354         1.439144
 H         5.447243        -0.190262         0.452817
 H         5.103124        -0.601838        -1.158814
 H         5.177634         1.034544        -0.735301
 H         2.378894         2.041644        -0.976930
 H         2.343257         0.688663        -2.197691
 H         0.434989         0.390750         0.152927
 H         2.444149        -1.779851        -0.893881
 H         1.888790        -0.415234         2.767167
 H         3.581786        -0.466957         2.435721
 H         2.482574         2.683644         0.838381
