19
Iteration:  1546charge 0 multiplicity 1
 C         4.798995         0.195301        -0.385093
 C         3.317567         0.239611        -0.249644
 C         2.295848         0.839768        -1.218395
 C         1.449495         0.242157        -0.074865
 C         2.323682        -1.009002        -0.147783
 O         2.376637        -1.639271         1.207978
 C         2.521072        -0.452601         2.015755
 C         2.450853         0.649777         0.928340
 O         2.545156         1.930930         1.443009
 H         5.311106        -0.325632         0.385260
 H         5.010052        -0.244542        -1.352059
 H         5.109827         1.207065        -0.431884
 H         2.226930         1.918147        -1.299770
 H         2.312941         0.374274        -2.362282
 H         0.326185         0.349624         0.155870
 H         2.291007        -1.782204        -0.894637
 H         1.625910        -0.620187         2.674162
 H         3.423406        -0.154112         2.619788
 H         2.824422         2.494620         0.651383
