19
Iteration:  4452
 C         4.861015         0.307576        -0.270114
 C         3.340415         0.293635        -0.277791
 C         2.249451         1.212328        -0.957226
 C         1.390420         0.406343        -0.041227
 C         2.271411        -0.880744        -0.339917
 O         2.350595        -1.801141         0.811920
 C         2.469760        -0.853778         1.826641
 C         2.443167         0.581440         1.064205
 O         2.734410         1.769928         1.621986
 H         5.286798         0.756028        -1.171077
 H         4.984894         1.086151         0.583725
 H         5.251374        -0.708034         0.001933
 H         2.456214         2.206934        -0.518701
 H         1.957113         1.100134        -1.978014
 H         0.252036         0.497353        -0.059196
 H         2.171853        -1.487595        -1.216266
 H         1.650782        -1.014984         2.563104
 H         3.398128        -0.899244         2.415110
 H         2.033300         2.494250         1.347417
