19
Iteration:  3136
 C         4.848837         0.233055        -0.408775
 C         3.287944         0.186738        -0.319757
 C         2.268057         1.119935        -1.088949
 C         1.398258         0.366067        -0.012706
 C         2.259570        -0.907647        -0.295924
 O         2.349063        -1.668231         0.879138
 C         2.659570        -0.752075         1.881749
 C         2.465578         0.569684         1.051056
 O         2.481238         1.882118         1.701828
 H         5.175151         0.230312         0.632056
 H         5.244551        -0.617017        -0.988033
 H         5.217571         1.083305        -1.005585
 H         2.439824         2.202354        -0.776285
 H         1.998090         0.851017        -2.112669
 H         0.236506         0.323550         0.208612
 H         2.140850        -1.514245        -1.182539
 H         2.060731        -0.751979         2.824294
 H         3.652543        -0.799730         2.357046
 H         3.387192         2.124315         2.034709
