19
Iteration:   890
 C         4.865250         0.093124        -0.441100
 C         3.345590         0.197727        -0.329653
 C         2.303096         0.931383        -1.181225
 C         1.382121         0.185829        -0.117473
 C         2.277254        -1.013325        -0.180222
 O         2.329774        -1.608967         1.205079
 C         2.648035        -0.437418         2.044564
 C         2.474958         0.661134         0.988500
 O         2.449208         1.980413         1.484017
 H         5.316171        -0.105145         0.523149
 H         5.394346        -0.636780        -1.165312
 H         5.231670         1.036697        -0.831485
 H         2.433048         2.089915        -1.111473
 H         2.182037         0.636674        -2.173073
 H         0.339669         0.020048         0.143248
 H         2.190990        -1.687408        -0.981202
 H         2.050883        -0.501098         2.983603
 H         3.703367        -0.373731         2.452777
 H         2.232659         2.502806         0.712681
