19
Iteration:  3623charge 0 multiplicity 1
 C         4.855703         0.225207        -0.299601
 C         3.270146         0.250943        -0.398629
 C         2.310001         1.156653        -1.107284
 C         1.385436         0.482692        -0.154371
 C         2.224321        -0.903513        -0.265595
 O         2.361647        -1.716253         0.870144
 C         2.597478        -0.654800         1.825326
 C         2.441620         0.584301         1.042497
 O         2.652957         1.613961         1.877513
 H         5.207419         0.721671        -1.227089
 H         5.179119         0.964595         0.489822
 H         5.312974        -0.806370        -0.094813
 H         2.432538         2.187345        -1.015947
 H         2.056027         1.023032        -2.199370
 H         0.270587         0.487527        -0.169653
 H         2.001489        -1.425799        -1.118390
 H         1.760496        -0.724687         2.576564
 H         3.488209        -0.601280         2.475440
 H         2.147281         2.443300         1.587529
