19
Iteration:  2641
 C         4.804560         0.198355        -0.482089
 C         3.306140         0.221408        -0.310319
 C         2.348752         0.976402        -1.149150
 C         1.450526         0.314735        -0.061605
 C         2.351657        -0.983806        -0.243317
 O         2.280091        -1.613508         1.112865
 C         2.628140        -0.532676         1.978179
 C         2.499495         0.596783         0.979775
 O         2.408844         1.831588         1.600381
 H         4.963406        -0.751449        -1.073323
 H         5.098882         1.066930        -1.109639
 H         5.386473         0.318518         0.472646
 H         2.172372         2.071471        -1.058957
 H         2.281731         0.657306        -2.219861
 H         0.363405         0.438594         0.158713
 H         2.284657        -1.662581        -0.977964
 H         1.871752        -0.439734         2.780110
 H         3.710564        -0.518073         2.381968
 H         3.263129         2.176969         1.672825
