19
Iteration:  3827charge 0 multiplicity 1
 C         4.904557         0.185331        -0.356885
 C         3.375349         0.349727        -0.335113
 C         2.236228         1.193047        -1.160158
 C         1.417717         0.356829        -0.021477
 C         2.263505        -0.851380        -0.324236
 O         2.379628        -1.677363         0.780387
 C         2.407827        -0.697145         1.813793
 C         2.490493         0.571746         1.092374
 O         2.622148         1.664856         1.960131
 H         5.169683        -0.622430        -1.044378
 H         5.326689         1.107560        -0.801333
 H         5.164692        -0.176491         0.609864
 H         2.475888         2.283729        -1.327266
 H         2.044630         0.793187        -2.130348
 H         0.336166         0.244882         0.096854
 H         2.314597        -1.436562        -1.249798
 H         1.587581        -0.765834         2.507723
 H         3.304035        -0.695792         2.417712
 H         2.205078         2.509041         1.552463
