19
Iteration:  2100charge 0 multiplicity 1
 C         4.796355         0.200613        -0.372140
 C         3.271639         0.150093        -0.320577
 C         2.212391         0.925244        -1.195993
 C         1.384059         0.276591        -0.154700
 C         2.322647        -1.067174        -0.137354
 O         2.442243        -1.574207         1.169701
 C         2.533873        -0.493203         2.071155
 C         2.476578         0.597516         0.939913
 O         2.647058         1.964637         1.461680
 H         5.055406        -0.277781         0.586923
 H         5.357878        -0.266521        -1.261755
 H         5.148755         1.265502        -0.299110
 H         2.311207         1.923561        -1.321966
 H         2.005904         0.476893        -2.278697
 H         0.379858         0.308081         0.130240
 H         2.193700        -1.950179        -0.875677
 H         1.549279        -0.372139         2.544051
 H         3.281912        -0.639682         2.913053
 H         2.425197         2.555769         0.772937
