19
Iteration:   369
 C         4.844686         0.029588        -0.445664
 C         3.378540         0.104551        -0.250176
 C         2.335678         0.830095        -1.163370
 C         1.363381         0.205843        -0.123458
 C         2.275388        -1.015347        -0.098172
 O         2.457316        -1.569917         1.153032
 C         2.502695        -0.351063         1.996347
 C         2.452590         0.724474         0.924357
 O         2.476837         2.014178         1.509610
 H         5.333230        -0.696649         0.220785
 H         5.226340        -0.030804        -1.520473
 H         5.289496         1.035976         0.000421
 H         2.330639         1.996537        -1.427973
 H         2.261536         0.485349        -2.209471
 H         0.325989        -0.094335         0.019965
 H         2.176779        -1.770558        -0.806225
 H         1.630718        -0.303741         2.671317
 H         3.430258        -0.398855         2.592995
 H         2.314874         2.679424         0.758549
