19
Iteration:    48
 C         4.798627         0.124499        -0.454449
 C         3.354592         0.125922        -0.233197
 C         2.334544         0.836365        -1.228658
 C         1.437082         0.264469        -0.103955
 C         2.352611        -1.068477        -0.112675
 O         2.373268        -1.571077         1.173898
 C         2.524755        -0.379642         2.005519
 C         2.451362         0.687953         0.967607
 O         2.451079         1.984034         1.523468
 H         5.465346        -0.419895         0.399243
 H         4.789454        -0.505515        -1.358909
 H         5.229339         1.057026        -0.791017
 H         2.499406         1.865691        -1.384903
 H         1.983397         0.265937        -2.233422
 H         0.354923         0.247984         0.095623
 H         2.158359        -1.841035        -0.882351
 H         1.830624        -0.277939         2.871468
 H         3.635062        -0.254777         2.123444
 H         2.918011         2.511661         0.905583
