19
Iteration:  2023
 C         4.977366         0.143498        -0.462096
 C         3.306691         0.161545        -0.314936
 C         2.310880         0.920546        -1.171748
 C         1.356080         0.212865        -0.051096
 C         2.277554        -1.085969        -0.122760
 O         2.343835        -1.604566         1.166940
 C         2.569940        -0.411934         1.993747
 C         2.499513         0.650761         0.980506
 O         2.432720         1.969952         1.522684
 H         5.583809        -0.128148         0.444641
 H         5.149214        -0.703326        -1.245123
 H         5.352742         1.139523        -0.904744
 H         2.335417         1.975525        -1.048629
 H         2.247016         0.680999        -2.329226
 H         0.349010         0.477413        -0.046453
 H         2.010570        -1.757786        -1.007699
 H         1.864334        -0.386969         2.834478
 H         3.660544        -0.439195         2.342362
 H         2.540207         2.543559         0.691937
