19
Iteration:  3317
 C         4.787434         0.246384        -0.388062
 C         3.299797         0.281140        -0.343127
 C         2.215149         1.179820        -1.011291
 C         1.379188         0.463405         0.007997
 C         2.256821        -0.900827        -0.303453
 O         2.485621        -1.698278         0.775528
 C         2.557750        -0.779301         1.899304
 C         2.489235         0.570045         1.031912
 O         2.598902         1.708770         1.764706
 H         5.266513         0.514972        -1.327213
 H         5.310397         0.973200         0.183207
 H         5.081630        -0.770722        -0.011405
 H         2.286801         2.243454        -0.887293
 H         1.920593         0.861023        -2.069825
 H         0.415459         0.432529         0.486486
 H         2.033332        -1.616310        -1.171716
 H         1.605432        -0.819334         2.462848
 H         3.257918        -0.822608         2.713813
 H         2.751866         2.445882         1.227509
