19
Iteration:  1129
 C         4.809101         0.138123        -0.458550
 C         3.380455         0.239326        -0.292055
 C         2.326304         0.939892        -1.233313
 C         1.422860         0.166059        -0.106047
 C         2.338639        -1.028358        -0.158316
 O         2.343735        -1.569234         1.214027
 C         2.626219        -0.438815         2.051856
 C         2.483163         0.653864         1.000988
 O         2.432428         1.921741         1.460280
 H         5.279654        -0.079309         0.578931
 H         5.019281        -0.770799        -1.122476
 H         5.213378         1.090904        -0.823843
 H         2.017326         2.063036        -1.057307
 H         2.201336         0.537229        -2.260384
 H         0.348666         0.291925         0.035018
 H         1.967606        -1.909522        -0.784448
 H         1.864309        -0.296510         2.838542
 H         3.599935        -0.772181         2.503561
 H         2.530440         2.512518         0.627776
