19
Iteration:  2228charge 0 multiplicity 1
 C         4.791809         0.152317        -0.340492
 C         3.267390         0.159852        -0.234910
 C         2.243832         0.905590        -1.130216
 C         1.402061         0.149813        -0.125287
 C         2.330178        -1.036524        -0.158270
 O         2.434753        -1.607174         1.116922
 C         2.516638        -0.396850         2.028419
 C         2.456662         0.676982         0.982307
 O         2.627156         1.943786         1.387945
 H         5.388689        -0.733930        -0.073644
 H         4.992237         0.360810        -1.360593
 H         5.153298         1.073346         0.201351
 H         2.476585         2.055263        -1.132608
 H         2.186435         0.595141        -2.104685
 H         0.285788         0.220391        -0.014136
 H         2.057625        -1.827278        -0.855241
 H         1.570499        -0.417347         2.658455
 H         3.484096        -0.405092         2.581356
 H         2.417240         2.700279         0.739050
