19
Iteration:  4700
 C         4.786884         0.171766        -0.425469
 C         3.305268         0.279866        -0.243185
 C         2.324884         1.181919        -1.105912
 C         1.383943         0.393206        -0.006554
 C         2.281670        -0.793492        -0.319893
 O         2.520659        -1.708838         0.744219
 C         2.519042        -0.783765         1.835482
 C         2.394630         0.566868         1.112917
 O         2.591457         1.773828         1.846358
 H         5.016997         0.019928        -1.482302
 H         5.381776         1.075062        -0.068350
 H         5.315990        -0.721493         0.041184
 H         2.285509         2.261687        -0.931740
 H         2.135644         0.797330        -2.081938
 H         0.307139         0.224372         0.268579
 H         2.047410        -1.375326        -1.211150
 H         1.677451        -0.866706         2.516387
 H         3.419785        -0.730156         2.428653
 H         1.773799         2.420192         1.874865
