19
Iteration:   561charge 0 multiplicity 1
 C         4.823831         0.066099        -0.310574
 C         3.271180         0.189512        -0.261996
 C         2.281712         0.918224        -1.195115
 C         1.331211         0.182771        -0.082113
 C         2.320882        -0.976665        -0.128525
 O         2.522178        -1.530744         1.133317
 C         2.522480        -0.414166         2.036036
 C         2.492788         0.663385         0.959948
 O         2.509329         1.917404         1.376805
 H         5.131135        -0.916783         0.187082
 H         5.098897        -0.006202        -1.404982
 H         5.346026         0.864538         0.106576
 H         2.458456         1.927335        -1.144750
 H         2.197898         0.497302        -2.205468
 H         0.206442         0.243733         0.089594
 H         2.194968        -1.713574        -1.061233
 H         1.661986        -0.522872         2.723257
 H         3.442677        -0.268408         2.623497
 H         2.333406         2.507852         0.688660
