19
Iteration:  2128charge 0 multiplicity 1
 C         4.858050         0.162035        -0.433224
 C         3.325434         0.140945        -0.191905
 C         2.338309         0.825158        -1.152130
 C         1.375201         0.258251        -0.050717
 C         2.306325        -1.027278        -0.118600
 O         2.313368        -1.641716         1.100765
 C         2.679671        -0.436862         1.979968
 C         2.425616         0.666979         0.962905
 O         2.487506         2.031096         1.428321
 H         5.329563        -0.709160         0.036840
 H         5.040246         0.135904        -1.473525
 H         5.354105         1.072382        -0.080497
 H         2.370705         2.039511        -1.029546
 H         2.319987         0.416340        -2.117935
 H         0.253380         0.204828         0.254379
 H         2.197301        -1.688929        -0.894680
 H         1.815613        -0.377059         2.721027
 H         3.590317        -0.587977         2.520297
 H         2.309505         2.539721         0.619432
