19
Iteration:  1518
 C         4.844471         0.187054        -0.369376
 C         3.296037         0.184974        -0.326537
 C         2.277378         0.750243        -1.321726
 C         1.361773         0.141479        -0.203249
 C         2.334573        -1.022992        -0.146166
 O         2.310491        -1.538359         1.212833
 C         2.622063        -0.494074         2.044875
 C         2.447354         0.735059         0.935803
 O         2.551644         2.026800         1.618997
 H         5.302578        -0.677896         0.200850
 H         5.090773         0.112479        -1.457760
 H         5.210185         1.252637        -0.096856
 H         2.413937         1.874780        -1.309277
 H         2.256575         0.358032        -2.232274
 H         0.256122         0.053062        -0.138836
 H         2.265517        -1.951945        -0.824548
 H         1.879502        -0.681639         2.794623
 H         3.657004        -0.323702         2.464797
 H         2.765118         2.738118         0.909490
