19
Iteration:   181charge 0 multiplicity 1
 C         4.790180         0.162849        -0.469405
 C         3.305520         0.161269        -0.304725
 C         2.246233         0.781987        -1.301835
 C         1.399574         0.305810        -0.102724
 C         2.304218        -1.010754        -0.058850
 O         2.407210        -1.676776         1.274792
 C         2.551610        -0.412846         2.002857
 C         2.534504         0.727870         0.899705
 O         2.494679         2.013570         1.420025
 H         5.216061        -0.626846         0.316045
 H         5.196695        -0.088124        -1.501952
 H         5.424742         1.024543        -0.118427
 H         2.539346         1.886394        -1.229672
 H         2.092025         0.321213        -2.338688
 H         0.294405         0.357938        -0.076710
 H         2.444230        -1.787098        -0.814296
 H         1.640004        -0.298251         2.664954
 H         3.470781        -0.527943         2.632919
 H         2.765374         2.105626         2.338422
