19
Iteration:  2049
 C         4.797205         0.163288        -0.384723
 C         3.246480         0.220362        -0.301295
 C         2.227913         0.771591        -1.295439
 C         1.390665         0.234803        -0.126909
 C         2.349628        -0.941237        -0.119332
 O         2.408824        -1.607336         1.149127
 C         2.495588        -0.479362         2.035955
 C         2.557144         0.668266         0.969492
 O         2.579212         1.946411         1.584341
 H         5.192793         0.114967         0.626162
 H         5.215231        -0.655142        -1.017131
 H         5.102101         1.084276        -0.816931
 H         2.486050         1.884945        -1.544970
 H         2.033072         0.364278        -2.244662
 H         0.243642         0.380150        -0.128817
 H         2.279338        -1.540373        -1.076507
 H         1.714605        -0.417139         2.839107
 H         3.496148        -0.542231         2.440015
 H         2.754196         2.592599         0.839548
