19
Iteration:  2326
 C         4.863482         0.069208        -0.455122
 C         3.341535         0.236687        -0.350777
 C         2.238032         0.972508        -1.111153
 C         1.390131         0.224295        -0.086267
 C         2.312183        -1.019493        -0.122356
 O         2.554700        -1.578777         1.150984
 C         2.385451        -0.425807         2.055108
 C         2.496314         0.627990         0.896362
 O         2.533724         1.876570         1.499086
 H         5.404211         0.322570         0.494057
 H         5.140327        -0.961072        -0.618373
 H         5.218500         0.844027        -1.240204
 H         2.217739         2.061712        -1.040973
 H         2.190526         0.772827        -2.160860
 H         0.213359         0.167919        -0.040633
 H         1.975799        -1.771735        -0.884074
 H         1.334789        -0.361964         2.542125
 H         3.237435        -0.423298         2.723793
 H         2.437784         2.702529         0.892219
