19
Iteration:  2496
 C         4.793574         0.102177        -0.481771
 C         3.342933         0.196623        -0.253032
 C         2.265566         0.883587        -1.260533
 C         1.436510         0.301703        -0.155782
 C         2.315527        -1.000526        -0.165804
 O         2.373215        -1.626568         1.066830
 C         2.582633        -0.430156         1.962178
 C         2.458917         0.685458         0.994451
 O         2.478349         1.906648         1.743972
 H         5.088230         0.814219        -1.298289
 H         5.225059         0.387159         0.544575
 H         5.241169        -0.930595        -0.589634
 H         2.500268         1.973736        -1.457147
 H         2.233044         0.540770        -2.244733
 H         0.311290         0.228592        -0.024275
 H         2.539986        -1.793746        -0.956916
 H         1.924126        -0.534004         2.844632
 H         3.628383        -0.364357         2.456254
 H         2.430411         2.675655         1.058702
