19
Iteration:  2976charge 0 multiplicity 1
 C         4.788999         0.202322        -0.398488
 C         3.280444         0.216679        -0.266924
 C         2.228338         1.028765        -1.097254
 C         1.392377         0.291417        -0.082086
 C         2.249250        -0.931487        -0.265158
 O         2.459611        -1.705913         0.893290
 C         2.500729        -0.653026         1.911930
 C         2.473861         0.642981         1.078685
 O         2.632749         1.956272         1.625864
 H         5.142415        -0.088806        -1.411463
 H         5.180578         1.188745        -0.046332
 H         5.335240        -0.503529         0.204829
 H         2.304520         2.095231        -0.979604
 H         2.095789         0.841983        -2.139685
 H         0.333197         0.350919        -0.082304
 H         2.212562        -1.584302        -1.200308
 H         1.757968        -0.806593         2.648246
 H         3.446961        -0.665784         2.491458
 H         2.846835         1.940840         2.606003
