19
Iteration:  2220
 C         4.798306         0.152944        -0.370727
 C         3.315608         0.155648        -0.194902
 C         2.248430         0.879337        -1.175841
 C         1.355300         0.260027        -0.127941
 C         2.354944        -1.015060        -0.122810
 O         2.489294        -1.641176         1.156323
 C         2.497502        -0.464251         1.994479
 C         2.386847         0.650098         0.997240
 O         2.651561         1.983801         1.391012
 H         5.106177        -0.824749        -0.082657
 H         5.036537         0.385639        -1.415845
 H         5.276848         0.880858         0.266569
 H         2.013283         1.996269        -1.093836
 H         2.150781         0.502025        -2.281084
 H         0.333685         0.411203        -0.065366
 H         2.201043        -1.697570        -1.049830
 H         1.620651        -0.462024         2.586373
 H         3.322365        -0.339701         2.724782
 H         2.313259         2.584048         0.638882
