19
Iteration:  4282charge 0 multiplicity 1
 C         4.828649         0.297096        -0.216541
 C         3.312637         0.258008        -0.352121
 C         2.207902         1.144052        -1.159748
 C         1.431955         0.342386        -0.147173
 C         2.238424        -0.849765        -0.386469
 O         2.356500        -1.667452         0.812197
 C         2.488652        -0.616273         1.866300
 C         2.477921         0.554305         1.017862
 O         2.758967         1.603160         1.930089
 H         5.314583         0.435156        -1.194260
 H         5.028514         1.019302         0.472745
 H         5.160126        -0.592048         0.215947
 H         1.880468         2.145623        -1.114130
 H         2.045078         0.807011        -2.217053
 H         0.365107         0.272032         0.094461
 H         2.069171        -1.543137        -1.303728
 H         1.671119        -0.703857         2.584628
 H         3.454139        -0.603164         2.383381
 H         2.441308         2.568338         1.708458
