19
Iteration:  1852
 C         4.778357         0.208928        -0.440867
 C         3.281846         0.152655        -0.290051
 C         2.314573         0.810127        -1.324448
 C         1.418552         0.231172        -0.125600
 C         2.298887        -1.010331        -0.113707
 O         2.458136        -1.596976         1.183984
 C         2.450559        -0.442950         2.024284
 C         2.447037         0.661876         0.936392
 O         2.621794         1.955306         1.588932
 H         5.140526        -0.338417         0.427437
 H         5.224817        -0.362661        -1.287539
 H         5.163068         1.254325        -0.299822
 H         2.386694         2.009009        -1.443836
 H         2.118488         0.369916        -2.282726
 H         0.283636         0.309922         0.067380
 H         2.327847        -1.762420        -0.944711
 H         1.690214        -0.520368         2.831495
 H         3.413058        -0.305674         2.491288
 H         2.201614         2.619668         1.062250
