19
Iteration:  1004charge 0 multiplicity 1
 C         4.891342         0.183370        -0.312194
 C         3.250117         0.162789        -0.266775
 C         2.289149         0.885538        -1.166955
 C         1.331308         0.228707        -0.085036
 C         2.304056        -1.029325        -0.128796
 O         2.340706        -1.670708         1.190892
 C         2.665635        -0.442943         1.959696
 C         2.453961         0.652808         0.966709
 O         2.553192         2.015455         1.384188
 H         5.471406        -0.719751         0.038011
 H         5.040852         0.411807        -1.358506
 H         5.177061         1.175081         0.193720
 H         2.308451         1.946862        -1.190450
 H         2.289326         0.382724        -2.225156
 H         0.100777         0.098020        -0.032698
 H         2.105680        -1.745033        -0.963839
 H         1.968014        -0.509653         2.779436
 H         3.625203        -0.449994         2.422186
 H         2.483479         2.547739         0.516283
