19
Iteration:  4750
 C         4.846877         0.198460        -0.391950
 C         3.289275         0.349161        -0.308434
 C         2.230593         1.170416        -0.991742
 C         1.304249         0.257671        -0.162670
 C         2.296042        -0.850487        -0.334283
 O         2.346760        -1.674220         0.834415
 C         2.664583        -0.688391         1.884599
 C         2.440878         0.591255         1.048763
 O         2.566350         1.696632         1.858356
 H         5.385923         0.718917        -1.225156
 H         5.264867         0.561816         0.496375
 H         5.275695        -0.757978        -0.478187
 H         2.486142         2.177422        -0.675561
 H         2.243259         1.046718        -2.131576
 H         0.252964         0.259043        -0.263699
 H         2.167707        -1.471647        -1.213491
 H         2.067071        -0.806240         2.821681
 H         3.722288        -0.562322         2.192309
 H         2.746737         2.475409         1.437889
