19
Iteration:  3536
 C         4.838980         0.250556        -0.405459
 C         3.322426         0.278141        -0.273907
 C         2.329906         1.217672        -1.020585
 C         1.399685         0.332424        -0.104156
 C         2.218921        -0.931279        -0.366998
 O         2.363056        -1.638081         0.885848
 C         2.484831        -0.646568         1.877262
 C         2.552432         0.502858         1.005059
 O         2.486397         1.701580         1.787298
 H         5.093280         0.604740        -1.399775
 H         5.369322         0.540284         0.501186
 H         5.294470        -0.827677        -0.550398
 H         2.557767         2.221140        -0.600960
 H         2.364461         1.224318        -2.194748
 H         0.330517         0.497778         0.196914
 H         2.211784        -1.549969        -1.210076
 H         1.637976        -0.842991         2.612914
 H         3.470124        -0.797379         2.399375
 H         3.403474         2.208022         1.911708
