19
Iteration:  4274charge 0 multiplicity 1
 C         4.773233         0.268859        -0.232017
 C         3.299517         0.354738        -0.303916
 C         2.200324         1.131773        -1.146794
 C         1.390149         0.321567        -0.138093
 C         2.317062        -0.925463        -0.372100
 O         2.318567        -1.624611         0.850610
 C         2.524185        -0.650787         1.818562
 C         2.475068         0.563701         0.990634
 O         2.783856         1.601663         1.934152
 H         5.222735         0.625573        -1.181787
 H         5.017341         1.117075         0.549642
 H         5.108702        -0.761204         0.086041
 H         2.229820         2.265607        -1.024152
 H         2.209557         0.872128        -2.237010
 H         0.326778         0.257613        -0.314347
 H         2.021266        -1.538819        -1.290336
 H         1.723730        -0.722375         2.545975
 H         3.481713        -0.661072         2.371191
 H         2.373699         2.474015         1.520502
