19
Iteration:  4268charge 0 multiplicity 1
 C         4.735353         0.288543        -0.243338
 C         3.266309         0.390592        -0.271751
 C         2.242253         1.142058        -1.130848
 C         1.324385         0.319120        -0.154048
 C         2.359859        -0.943397        -0.350775
 O         2.303932        -1.649064         0.864722
 C         2.550817        -0.698524         1.806747
 C         2.461355         0.611380         0.987513
 O         2.779602         1.624348         1.902215
 H         5.237312         0.637681        -1.141135
 H         5.219365         0.919989         0.507329
 H         5.104525        -0.738559        -0.083656
 H         2.562321         2.176584        -0.954811
 H         2.233855         0.894006        -2.177568
 H         0.212231         0.283665        -0.335107
 H         2.206437        -1.552720        -1.196071
 H         1.736515        -0.657702         2.580499
 H         3.526775        -0.922382         2.302130
 H         2.443019         2.375232         1.482661
