19
Iteration:   191charge 0 multiplicity 1
 C         4.740678         0.135783        -0.447889
 C         3.288948         0.131991        -0.314069
 C         2.306567         0.797168        -1.271193
 C         1.403847         0.310202        -0.108177
 C         2.434432        -1.071860        -0.042352
 O         2.463966        -1.631528         1.220278
 C         2.500877        -0.439162         2.007765
 C         2.486717         0.714416         0.944989
 O         2.508549         2.074081         1.407626
 H         5.002760        -0.796224         0.264768
 H         4.874504        -0.303314        -1.468865
 H         5.115260         1.141262        -0.283616
 H         2.359545         1.919364        -1.337675
 H         1.945820         0.544263        -2.338040
 H         0.322067         0.369543         0.190152
 H         2.240323        -1.804007        -0.876368
 H         1.492109        -0.296792         2.435475
 H         3.232934        -0.419474         2.821529
 H         3.017085         1.974274         2.287477
