19
Iteration:  4072charge 0 multiplicity 1
 C         4.869109         0.230327        -0.351687
 C         3.333157         0.289669        -0.377373
 C         2.306689         1.185253        -1.082950
 C         1.385495         0.488829        -0.030165
 C         2.302469        -0.894213        -0.345940
 O         2.377456        -1.742958         0.766599
 C         2.487512        -0.702529         1.853176
 C         2.473566         0.583353         1.035679
 O         2.602347         1.631308         1.948005
 H         5.317038        -0.572392        -0.952928
 H         5.252431         1.181575        -0.670119
 H         5.242025         0.170839         0.687428
 H         2.251564         2.259997        -1.171402
 H         2.125739         0.832660        -2.129989
 H         0.266351         0.432796         0.092129
 H         2.085161        -1.455259        -1.261027
 H         1.545742        -0.575641         2.394228
 H         3.306940        -0.713787         2.523277
 H         2.142200         2.389916         1.621284
