19
Iteration:   930
 C         4.815408         0.089546        -0.535772
 C         3.308625         0.155828        -0.283785
 C         2.353321         0.883143        -1.303512
 C         1.405004         0.215132        -0.060569
 C         2.326178        -0.952257        -0.167064
 O         2.483237        -1.620220         1.178296
 C         2.483595        -0.446161         2.052513
 C         2.397548         0.675006         1.031732
 O         2.508104         2.008935         1.561388
 H         5.174087        -0.174306         0.494575
 H         5.077392        -0.648242        -1.249482
 H         5.190345         1.072699        -0.696658
 H         2.365654         1.952227        -1.336272
 H         2.193156         0.350908        -2.257068
 H         0.355152         0.059943         0.020204
 H         2.283481        -1.785086        -0.924377
 H         1.619779        -0.302362         2.719884
 H         3.381457        -0.577462         2.706087
 H         2.525633         2.738295         0.867004
