19
Iteration:   971
 C         4.760767         0.129520        -0.360765
 C         3.283456         0.190965        -0.376802
 C         2.245543         0.872967        -1.294522
 C         1.389885         0.209260        -0.029524
 C         2.395359        -0.997243        -0.125826
 O         2.479235        -1.581093         1.210368
 C         2.476341        -0.397337         1.992738
 C         2.462767         0.697511         0.936949
 O         2.608314         1.894938         1.533058
 H         5.259159        -0.650125         0.263503
 H         5.043279        -0.065352        -1.408887
 H         5.249172         1.114985        -0.021070
 H         2.254344         1.926285        -1.525735
 H         2.246996         0.323848        -2.343767
 H         0.166194         0.098932         0.137780
 H         2.158893        -1.759299        -0.922529
 H         1.474689        -0.418134         2.432395
 H         3.270887        -0.245782         2.681203
 H         2.415780         2.531978         0.887862
