19
Iteration:  1409
 C         4.808266         0.118610        -0.414376
 C         3.303122         0.168014        -0.386122
 C         2.285009         0.769500        -1.304922
 C         1.401061         0.296691        -0.144189
 C         2.366587        -1.044369        -0.069603
 O         2.418862        -1.614886         1.227160
 C         2.544939        -0.437842         1.965728
 C         2.428865         0.752377         0.987204
 O         2.460378         1.968663         1.597423
 H         5.364163        -0.268401         0.500745
 H         5.288093        -0.404143        -1.274678
 H         5.130657         1.229180        -0.601448
 H         2.423340         1.945734        -1.413448
 H         2.222097         0.403549        -2.361233
 H         0.405237         0.391552         0.098831
 H         2.382392        -1.750611        -1.004675
 H         1.816339        -0.468362         2.803976
 H         3.571160        -0.500192         2.462058
 H         2.768070         2.630214         0.975643
