19
Iteration:  2738charge 0 multiplicity 1
 C         4.794437         0.214606        -0.377806
 C         3.298031         0.271752        -0.268022
 C         2.253447         0.901466        -1.213426
 C         1.359585         0.315277        -0.080828
 C         2.318411        -0.932037        -0.251824
 O         2.373616        -1.635437         1.006101
 C         2.611088        -0.578614         1.992353
 C         2.427886         0.655231         1.031449
 O         2.573869         1.879666         1.611773
 H         5.206361        -0.659426         0.178243
 H         4.955723         0.094352        -1.446277
 H         5.178246         1.183778        -0.099046
 H         2.228614         1.987307        -1.250355
 H         2.211085         0.400027        -2.165820
 H         0.254964         0.388436         0.044626
 H         2.234311        -1.636839        -1.159915
 H         1.831944        -0.756875         2.734475
 H         3.598531        -0.652513         2.397401
 H         3.481784         1.921591         1.872103
