19
Iteration:  4292
 C         4.875583         0.311743        -0.237742
 C         3.325514         0.245614        -0.356786
 C         2.219239         1.137734        -1.176624
 C         1.333591         0.419012        -0.046711
 C         2.227002        -0.875602        -0.352466
 O         2.415668        -1.729522         0.782443
 C         2.459352        -0.721561         1.878302
 C         2.477566         0.637166         0.992848
 O         2.710501         1.650353         1.902134
 H         5.543808         0.256241        -1.114200
 H         5.228969         1.157426         0.234222
 H         5.209455        -0.513198         0.323054
 H         2.346789         2.210594        -1.111128
 H         1.934863         0.736696        -2.166662
 H         0.281569         0.511065         0.309875
 H         2.148748        -1.464988        -1.339252
 H         1.574686        -0.668524         2.553617
 H         3.343038        -1.043488         2.447564
 H         2.461613         2.570073         1.471451
