19
Iteration:  3829
 C         4.887966         0.172957        -0.361929
 C         3.349606         0.334786        -0.327768
 C         2.254315         1.195073        -1.158534
 C         1.441114         0.361064        -0.030881
 C         2.253775        -0.846160        -0.307510
 O         2.389360        -1.664571         0.779170
 C         2.408371        -0.672003         1.805905
 C         2.499089         0.566950         1.065195
 O         2.610877         1.648283         1.976299
 H         5.167065        -0.537274        -1.109006
 H         5.321039         1.129142        -0.802242
 H         5.240356        -0.169503         0.655515
 H         2.487302         2.305205        -1.242946
 H         2.024914         0.711537        -2.194015
 H         0.317991         0.174338         0.088389
 H         2.283852        -1.412508        -1.193390
 H         1.596911        -0.804032         2.524684
 H         3.304170        -0.656497         2.421648
 H         2.227024         2.507115         1.529369
