19
Iteration:  3400
 C         4.820969         0.281960        -0.427907
 C         3.358331         0.287527        -0.353854
 C         2.288357         1.063180        -1.156532
 C         1.404830         0.500657        -0.032869
 C         2.212457        -0.886022        -0.315450
 O         2.377275        -1.735637         0.799224
 C         2.519645        -0.748430         1.830386
 C         2.528871         0.613825         1.058049
 O         2.507705         1.725537         1.966313
 H         5.348255        -0.566459        -0.921895
 H         5.129579         1.344297        -0.832795
 H         5.277812         0.288322         0.555902
 H         2.393177         2.175557        -1.114792
 H         1.999070         0.722244        -2.158307
 H         0.348773         0.455491         0.197587
 H         2.119007        -1.406370        -1.315596
 H         1.688840        -0.814242         2.586717
 H         3.583796        -0.938463         2.164002
 H         3.444446         1.888599         2.342283
