19
Iteration:   320
 C         4.838876         0.175108        -0.403577
 C         3.339166         0.168953        -0.268943
 C         2.264877         0.811761        -1.205004
 C         1.392476         0.191825        -0.128737
 C         2.312047        -1.033246        -0.149991
 O         2.450237        -1.625780         1.222485
 C         2.408637        -0.389496         2.050190
 C         2.413981         0.655552         0.960310
 O         2.683552         2.004140         1.421425
 H         5.362519        -0.521738         0.278019
 H         5.080504        -0.038350        -1.413236
 H         5.242762         1.122670        -0.197805
 H         2.275185         1.822950        -1.206787
 H         2.111256         0.487962        -2.249028
 H         0.261551         0.277660        -0.069100
 H         2.132190        -1.858224        -0.971876
 H         1.471577        -0.239641         2.609230
 H         3.259398        -0.312640         2.745649
 H         2.133451         2.584350         0.900740
