19
Iteration:   308
 C         4.779367         0.194547        -0.388904
 C         3.289159         0.123452        -0.268638
 C         2.306570         0.798418        -1.257480
 C         1.420821         0.165702        -0.157713
 C         2.272178        -1.106553        -0.099862
 O         2.391295        -1.493684         1.161450
 C         2.461660        -0.384737         1.995735
 C         2.520339         0.666778         0.955280
 O         2.659328         2.009488         1.517258
 H         5.172162        -0.449384         0.388093
 H         5.196082        -0.130284        -1.285378
 H         5.017080         1.240095        -0.165376
 H         2.263155         1.810730        -1.355683
 H         2.172629         0.328593        -2.238903
 H         0.322327         0.200386         0.105533
 H         2.331381        -2.073780        -0.788840
 H         1.667559        -0.444514         2.752940
 H         3.457780        -0.475926         2.509523
 H         2.096674         2.601262         0.855144
