19
Iteration:  1495charge 0 multiplicity 1
 C         4.839503         0.162376        -0.335620
 C         3.308569         0.199457        -0.331297
 C         2.254433         0.799708        -1.245640
 C         1.411017         0.276435        -0.123201
 C         2.320539        -1.022548        -0.106017
 O         2.393902        -1.630002         1.212977
 C         2.573107        -0.324026         1.990799
 C         2.481382         0.696698         0.885320
 O         2.516637         1.886158         1.530481
 H         5.179101        -0.826220         0.053005
 H         5.090128         0.230889        -1.404277
 H         5.277246         1.142374         0.128327
 H         2.447630         1.891229        -1.459674
 H         2.143006         0.238607        -2.066392
 H         0.248625         0.304870        -0.035933
 H         2.143124        -1.841589        -0.914942
 H         1.802245        -0.325871         2.720938
 H         3.589416        -0.511225         2.439573
 H         2.350045         2.487420         0.813830
