19
Iteration:  3408charge 0 multiplicity 1
 C         4.852039         0.323414        -0.405249
 C         3.315419         0.258900        -0.319312
 C         2.263471         1.090424        -1.154442
 C         1.447088         0.524775        -0.027417
 C         2.261215        -0.853697        -0.334900
 O         2.369082        -1.770809         0.803089
 C         2.525053        -0.751514         1.812994
 C         2.496879         0.556373         1.072891
 O         2.523736         1.743776         1.954765
 H         5.192854        -0.514202        -1.039865
 H         5.183463         1.144938        -0.960955
 H         5.175619         0.228294         0.659889
 H         2.452765         2.195742        -1.255122
 H         1.898740         0.576839        -2.018531
 H         0.329864         0.477463         0.149908
 H         2.001456        -1.274822        -1.249258
 H         1.742380        -0.989026         2.509421
 H         3.464739        -0.936414         2.398806
 H         3.436325         2.080196         1.921451
