19
Iteration:  3558charge 0 multiplicity 1
 C         4.829180         0.212957        -0.437071
 C         3.356353         0.245963        -0.268420
 C         2.343496         1.257964        -0.949920
 C         1.450939         0.363015        -0.006289
 C         2.280968        -0.863628        -0.312914
 O         2.377908        -1.801313         0.784770
 C         2.476594        -0.732931         1.921819
 C         2.436370         0.519261         1.085666
 O         2.523948         1.874553         1.706710
 H         5.083482         0.804606        -1.319658
 H         5.195482         0.462730         0.555445
 H         5.297823        -0.843419        -0.630285
 H         2.344533         2.348487        -0.774199
 H         2.149084         0.965624        -2.070146
 H         0.363327         0.561974        -0.013528
 H         2.217725        -1.364971        -1.206764
 H         1.498445        -0.958172         2.434835
 H         3.281656        -1.056560         2.607713
 H         3.151423         2.217687         1.133496
