19
Iteration:  1920
 C         4.810221         0.165025        -0.357156
 C         3.308445         0.250476        -0.190256
 C         2.250042         0.816118        -1.206564
 C         1.315783         0.170735        -0.242849
 C         2.247817        -1.070982        -0.134880
 O         2.456287        -1.615175         1.155160
 C         2.543698        -0.416900         2.012088
 C         2.446561         0.702205         0.989390
 O         2.601180         1.976824         1.463952
 H         5.268041        -0.847917        -0.129430
 H         5.020651         0.352297        -1.401661
 H         5.337761         0.967826         0.288840
 H         2.304271         2.001386        -1.275392
 H         2.176194         0.527932        -2.302161
 H         0.284841         0.290294         0.240315
 H         2.379649        -1.829793        -0.823071
 H         1.905533        -0.451633         2.931034
 H         3.576341        -0.395727         2.393848
 H         2.854532         2.544016         0.712127
