19
Iteration:  3211charge 0 multiplicity 1
 C         4.814611         0.205489        -0.445983
 C         3.232622         0.326361        -0.276990
 C         2.274353         1.198624        -0.991191
 C         1.359099         0.296500        -0.014185
 C         2.344520        -0.911016        -0.316000
 O         2.462098        -1.713027         0.856793
 C         2.467813        -0.767150         1.945437
 C         2.481245         0.613695         1.069408
 O         2.676463         1.789536         1.658559
 H         5.354117         1.105943        -0.129504
 H         5.146864        -0.791450        -0.091287
 H         4.872262         0.312142        -1.581341
 H         2.364569         2.294585        -0.811875
 H         2.172709         1.126214        -2.071219
 H         0.179510         0.392923         0.235720
 H         2.167464        -1.571510        -1.153844
 H         1.554202        -0.859985         2.602403
 H         3.459670        -0.795807         2.489428
 H         1.933200         2.350855         1.592772
