19
Iteration:  1088charge 0 multiplicity 1
 C         4.777339         0.092854        -0.438003
 C         3.291912         0.242129        -0.302906
 C         2.281466         0.816074        -1.321466
 C         1.419023         0.241687        -0.118976
 C         2.263331        -1.019835        -0.087147
 O         2.564843        -1.587195         1.167019
 C         2.426986        -0.468391         2.036234
 C         2.462590         0.649261         1.008538
 O         2.564973         2.018843         1.546325
 H         5.411661        -0.447061         0.236163
 H         4.937704        -0.332965        -1.450291
 H         5.382923         1.040821        -0.412422
 H         2.289086         1.944087        -1.226588
 H         2.303424         0.283544        -2.264471
 H         0.370299         0.169789        -0.001563
 H         2.279158        -1.708245        -0.971243
 H         1.399457        -0.593880         2.537717
 H         3.215751        -0.243373         2.868082
 H         2.368975         2.684333         0.937429
