19
Iteration:  2172
 C         4.893231         0.024781        -0.443542
 C         3.332663         0.199710        -0.323994
 C         2.245049         0.834471        -1.215922
 C         1.357121         0.233375        -0.120099
 C         2.316719        -1.071547        -0.130487
 O         2.481487        -1.544258         1.185980
 C         2.486885        -0.358804         1.941382
 C         2.481806         0.728991         0.912801
 O         2.467574         1.920128         1.620781
 H         5.136913        -1.041979        -0.304169
 H         5.176758         0.374780        -1.404174
 H         5.425311         0.662679         0.294266
 H         2.455650         1.996909        -1.371130
 H         2.111273         0.386805        -2.123877
 H         0.205013         0.313545         0.031157
 H         2.349344        -1.800675        -0.862824
 H         1.734292        -0.240163         2.781505
 H         3.435337        -0.167423         2.415599
 H         2.523820         2.754687         1.174110
