19
Iteration:   758
 C         4.875782         0.178436        -0.407139
 C         3.326344         0.178691        -0.290927
 C         2.309331         0.818540        -1.230360
 C         1.395533         0.202932        -0.102640
 C         2.252973        -1.048893        -0.097792
 O         2.368827        -1.588627         1.187533
 C         2.602522        -0.409630         1.965069
 C         2.509132         0.659399         0.929107
 O         2.462727         1.995351         1.538154
 H         5.163401        -0.820329         0.011060
 H         5.170476         0.107538        -1.515603
 H         5.382341         0.971367         0.119289
 H         2.220598         1.957400        -1.396631
 H         2.342478         0.425187        -2.212808
 H         0.354058         0.406839         0.024233
 H         2.234618        -1.822146        -0.909847
 H         1.955185        -0.317608         2.836909
 H         3.607789        -0.649595         2.265946
 H         2.103551         2.627823         0.964908
