19
Iteration:  2708charge 0 multiplicity 1
 C         4.758907         0.102570        -0.351346
 C         3.272146         0.270234        -0.343546
 C         2.173985         0.997607        -1.215236
 C         1.366388         0.252828        -0.103841
 C         2.264019        -1.030989        -0.302287
 O         2.564803        -1.607027         1.047369
 C         2.536728        -0.497245         1.975932
 C         2.486413         0.668217         0.967468
 O         2.585754         1.909261         1.647950
 H         4.949578        -1.006273        -0.286755
 H         5.228024         0.494374        -1.272903
 H         5.183865         0.770741         0.462315
 H         2.127688         2.047321        -1.154570
 H         2.187342         0.708196        -2.327040
 H         0.364647         0.483543         0.169657
 H         2.057426        -1.690843        -0.975030
 H         1.581661        -0.631089         2.513761
 H         3.396510        -0.616500         2.794554
 H         3.315848         1.796067         2.391985
