19
Iteration:  3244charge 0 multiplicity 1
 C         4.859210         0.380305        -0.448254
 C         3.333129         0.223329        -0.365826
 C         2.281233         1.134951        -1.032867
 C         1.400582         0.348056         0.072650
 C         2.194540        -0.971457        -0.303136
 O         2.336872        -1.709592         0.853702
 C         2.542174        -0.745986         1.894333
 C         2.546299         0.566709         1.006408
 O         2.604207         1.746606         1.766637
 H         5.141364         1.466258        -0.577903
 H         5.440828         0.193864         0.501974
 H         5.335734        -0.327256        -1.246075
 H         2.517400         2.210560        -0.809395
 H         2.043952         0.929353        -2.079837
 H         0.237841         0.577049         0.296414
 H         1.850400        -1.430564        -1.216541
 H         1.710952        -0.666461         2.654425
 H         3.558162        -0.958153         2.384878
 H         2.323136         2.513082         1.260700
