19
Iteration:  4167
 C         4.739763         0.219307        -0.384402
 C         3.325501         0.310017        -0.186120
 C         2.365606         1.165998        -1.133434
 C         1.424386         0.442932        -0.132697
 C         2.308341        -0.877599        -0.347915
 O         2.444322        -1.714246         0.791479
 C         2.480537        -0.723816         1.824581
 C         2.379529         0.606386         1.076820
 O         2.599655         1.691235         1.986272
 H         4.759589         0.064377        -1.443647
 H         5.470686         0.920700         0.050720
 H         5.150596        -0.737609         0.052609
 H         2.320881         2.237909        -1.408109
 H         2.203989         0.678245        -2.086559
 H         0.325979         0.418950        -0.257144
 H         2.117788        -1.407187        -1.233849
 H         1.620793        -0.875210         2.524850
 H         3.438392        -0.791545         2.407405
 H         2.708598         2.481491         1.332498
