19
Iteration:  2162
 C         4.865155         0.059399        -0.487175
 C         3.336384         0.196669        -0.291560
 C         2.285626         0.897737        -1.302696
 C         1.375235         0.205404        -0.160947
 C         2.368007        -1.007153        -0.093510
 O         2.397460        -1.598871         1.228003
 C         2.628668        -0.349002         2.035244
 C         2.368816         0.693574         0.905439
 O         2.461413         1.907776         1.604758
 H         5.144095        -0.968399        -0.268178
 H         5.265927         0.256066        -1.420640
 H         5.415101         0.617805         0.295881
 H         2.420375         2.110043        -1.403423
 H         2.174967         0.552349        -2.293442
 H         0.274791         0.354651         0.002555
 H         2.098933        -1.739730        -0.781389
 H         1.756074        -0.365622         2.699981
 H         3.574646        -0.410928         2.551128
 H         2.496994         2.636961         1.018152
