19
Iteration:  3445charge 0 multiplicity 1
 C         4.774317         0.266197        -0.375612
 C         3.293199         0.265089        -0.243900
 C         2.235721         1.293085        -0.881174
 C         1.358288         0.260725        -0.139314
 C         2.336508        -0.882961        -0.386594
 O         2.366175        -1.726293         0.815295
 C         2.486925        -0.745829         1.854493
 C         2.470693         0.555713         1.077165
 O         2.744915         1.734346         1.750468
 H         5.062719        -0.576760        -1.016018
 H         5.279599         1.264268        -0.698162
 H         5.298493         0.004342         0.516079
 H         2.350469         2.314571        -0.437751
 H         2.223471         1.302665        -1.977525
 H         0.287983         0.222823        -0.239928
 H         2.187821        -1.586240        -1.304893
 H         1.557637        -0.635213         2.457160
 H         3.447300        -0.691217         2.424009
 H         2.166927         2.441244         1.337779
