19
Iteration:  1646charge 0 multiplicity 1
 C         4.838917         0.135366        -0.408770
 C         3.349392         0.130523        -0.355534
 C         2.318158         0.867924        -1.202430
 C         1.440789         0.294132        -0.112172
 C         2.320543        -0.983515        -0.148151
 O         2.364882        -1.621899         1.237390
 C         2.616796        -0.421621         2.004512
 C         2.471421         0.666860         0.913541
 O         2.394810         1.902354         1.513450
 H         5.173044        -0.564583         0.327545
 H         5.272397        -0.196895        -1.351255
 H         5.224794         1.125949        -0.101404
 H         2.340982         1.948059        -1.281160
 H         2.179250         0.367009        -2.314365
 H         0.328241         0.627937         0.080095
 H         2.102104        -1.791622        -0.929087
 H         1.954882        -0.136640         2.864033
 H         3.650433        -0.431330         2.465103
 H         2.443354         2.629846         0.914301
