19
Iteration:  2980
 C         4.810814         0.195284        -0.381747
 C         3.301036         0.175831        -0.314588
 C         2.252212         1.080247        -1.075368
 C         1.370684         0.274003        -0.077024
 C         2.247480        -0.916412        -0.253684
 O         2.457434        -1.692657         0.884472
 C         2.514753        -0.675162         1.935392
 C         2.487973         0.635986         1.075889
 O         2.613620         1.952468         1.607537
 H         5.096204        -0.069780        -1.385618
 H         5.109625         1.222120        -0.237373
 H         5.282222        -0.519533         0.319423
 H         2.216795         2.145040        -0.890071
 H         2.111601         0.790145        -2.159366
 H         0.265254         0.357845         0.007848
 H         2.151974        -1.544294        -1.115078
 H         1.667302        -0.740229         2.684783
 H         3.509122        -0.652104         2.425144
 H         2.738657         1.961619         2.536416
