19
Iteration:   490
 C         4.840852         0.198572        -0.427085
 C         3.359288         0.171493        -0.282080
 C         2.285247         0.813774        -1.307228
 C         1.375671         0.258969        -0.162876
 C         2.338478        -1.060176        -0.101486
 O         2.371049        -1.619950         1.208634
 C         2.477270        -0.469059         2.067770
 C         2.466532         0.701773         0.906879
 O         2.565568         1.977332         1.537014
 H         5.328312        -0.339706         0.371089
 H         5.027722        -0.248186        -1.416777
 H         5.261325         1.302899        -0.438879
 H         2.453845         1.958814        -1.152647
 H         2.232058         0.305474        -2.263683
 H         0.311174         0.315098         0.103790
 H         2.318583        -1.845187        -0.777486
 H         1.625553        -0.276632         2.729404
 H         3.401209        -0.579334         2.661142
 H         2.435619         2.649003         0.905725
