19
Iteration:  1005
 C         4.883344         0.186130        -0.310461
 C         3.250929         0.168840        -0.259570
 C         2.292948         0.882746        -1.167988
 C         1.339198         0.233507        -0.082430
 C         2.305582        -1.026929        -0.125917
 O         2.340229        -1.666292         1.187189
 C         2.662177        -0.445435         1.963685
 C         2.446030         0.639646         0.961866
 O         2.551543         2.014790         1.377709
 H         5.462571        -0.729214         0.022637
 H         5.055180         0.424623        -1.342814
 H         5.159083         1.153800         0.167023
 H         2.338656         1.940733        -1.198837
 H         2.276555         0.406598        -2.236825
 H         0.133600         0.078449         0.005899
 H         2.101957        -1.747912        -0.936680
 H         1.988515        -0.478129         2.789350
 H         3.656283        -0.475529         2.378849
 H         2.495486         2.533885         0.542632
