19
Iteration:   617charge 0 multiplicity 1
 C         4.812048         0.220932        -0.391668
 C         3.353941         0.177357        -0.268319
 C         2.236261         0.775315        -1.208120
 C         1.424183         0.229009        -0.135522
 C         2.358599        -1.015111        -0.179119
 O         2.366255        -1.585965         1.221950
 C         2.519032        -0.408191         1.985328
 C         2.472655         0.692711         0.932454
 O         2.576394         1.896425         1.543114
 H         5.370739        -0.369553         0.374878
 H         5.171485        -0.195856        -1.392265
 H         5.114844         1.222448        -0.368274
 H         2.145555         1.722296        -1.591230
 H         2.216134         0.134375        -2.137913
 H         0.316137         0.514764        -0.030968
 H         2.133798        -1.705171        -1.077097
 H         1.643358        -0.319598         2.663115
 H         3.437743        -0.264704         2.591451
 H         2.352073         2.572710         0.891549
