19
Iteration:  4724
 C         4.783210         0.188598        -0.372088
 C         3.293272         0.368847        -0.304322
 C         2.216272         1.109321        -1.145589
 C         1.405417         0.469135        -0.065814
 C         2.260055        -0.873059        -0.363032
 O         2.447314        -1.693053         0.784735
 C         2.661197        -0.791964         1.844024
 C         2.563968         0.570258         1.064734
 O         2.487387         1.745191         1.951410
 H         5.310977         0.324137        -1.293440
 H         5.392822         0.705350         0.464647
 H         5.003795        -0.914521        -0.220213
 H         2.402107         2.217194        -1.149311
 H         2.109250         0.573873        -2.070416
 H         0.346038         0.815469         0.279769
 H         1.986572        -1.565101        -1.202428
 H         1.842713        -0.748170         2.523395
 H         3.575327        -0.792025         2.458817
 H         1.978944         2.397557         1.510469
