19
Iteration:  3832charge 0 multiplicity 1
 C         4.862473         0.164883        -0.368716
 C         3.316181         0.314509        -0.312930
 C         2.280470         1.186746        -1.157582
 C         1.456031         0.375126        -0.049139
 C         2.254462        -0.836407        -0.296513
 O         2.401249        -1.652589         0.784067
 C         2.416935        -0.648731         1.807625
 C         2.505238         0.573365         1.026635
 O         2.593633         1.634303         1.990505
 H         5.173071        -0.494312        -1.213095
 H         5.309358         1.116879        -0.729559
 H         5.330248        -0.121093         0.643756
 H         2.448791         2.271004        -1.112809
 H         2.035274         0.681724        -2.188065
 H         0.356194         0.147977         0.078712
 H         2.204747        -1.426711        -1.212952
 H         1.577468        -0.830602         2.530448
 H         3.343305        -0.667048         2.445931
 H         2.306326         2.400965         1.550632
