19
Iteration:  3681
 C         4.904762         0.195597        -0.412041
 C         3.321358         0.278578        -0.270276
 C         2.293340         1.289466        -0.907694
 C         1.397644         0.340334        -0.083898
 C         2.278295        -0.870106        -0.411228
 O         2.378955        -1.683275         0.840469
 C         2.455047        -0.705767         1.885829
 C         2.484282         0.535724         1.050051
 O         2.557072         1.701136         1.761944
 H         4.992989        -0.520236        -1.330121
 H         5.243396         1.223141        -0.631623
 H         5.446872        -0.322308         0.459419
 H         2.300067         2.371164        -0.513582
 H         2.235407         1.107707        -1.991063
 H         0.325963         0.360319         0.250790
 H         2.191133        -1.651292        -1.215607
 H         1.493114        -0.803775         2.416006
 H         3.367579        -0.834619         2.511809
 H         2.910827         2.357385         1.170248
