19
Iteration:  1385charge 0 multiplicity 1
 C         4.833578         0.230680        -0.437186
 C         3.325321         0.190392        -0.249332
 C         2.329914         0.720612        -1.262754
 C         1.400173         0.251871        -0.178326
 C         2.268650        -1.029496        -0.154230
 O         2.349637        -1.589860         1.205343
 C         2.628904        -0.405647         1.997778
 C         2.443001         0.705678         1.000407
 O         2.480017         1.930755         1.579937
 H         5.419509        -0.069627         0.478871
 H         5.127749        -0.569408        -1.168455
 H         5.282157         1.242623        -0.867910
 H         2.312819         1.890148        -1.503691
 H         2.201675         0.230410        -2.183952
 H         0.325565         0.162288        -0.009078
 H         2.186698        -1.649122        -1.062491
 H         1.858509        -0.298434         2.747365
 H         3.575364        -0.641177         2.502618
 H         2.775977         2.625424         0.891644
