19
Iteration:   627
 C         4.834946         0.223896        -0.437270
 C         3.362356         0.149599        -0.236095
 C         2.267799         0.764472        -1.303135
 C         1.410203         0.314421        -0.076624
 C         2.386364        -0.959669        -0.103872
 O         2.302738        -1.650378         1.229802
 C         2.535484        -0.368476         1.978012
 C         2.440709         0.674398         0.882438
 O         2.539206         1.862044         1.559946
 H         5.438860        -0.088586         0.461767
 H         5.143746        -0.205601        -1.454497
 H         5.020076         1.250561        -0.463200
 H         2.429746         1.871679        -1.472785
 H         2.094333         0.216096        -2.220812
 H         0.320362         0.123335        -0.070155
 H         2.347056        -1.784301        -0.945241
 H         1.859734        -0.426438         2.831871
 H         3.574441        -0.248604         2.290098
 H         2.543481         2.662965         0.950710
