19
Iteration:  4449
 C         4.888785         0.306291        -0.275667
 C         3.320524         0.278515        -0.265751
 C         2.235453         1.247055        -0.945928
 C         1.373405         0.397236        -0.026956
 C         2.283436        -0.894836        -0.365210
 O         2.358599        -1.788511         0.820125
 C         2.466717        -0.852737         1.826696
 C         2.431422         0.590946         1.049377
 O         2.732058         1.757024         1.614977
 H         5.304092         0.659540        -1.141713
 H         4.982339         0.997600         0.531300
 H         5.304399        -0.634309         0.073725
 H         2.499595         2.220980        -0.528102
 H         1.960900         1.199465        -2.010851
 H         0.289657         0.397571        -0.057693
 H         2.178732        -1.529723        -1.195879
 H         1.646346        -0.849774         2.565273
 H         3.398460        -0.946362         2.434131
 H         2.096816         2.452786         1.374299
