19
Iteration:  2610charge 0 multiplicity 1
 C         4.852435         0.251744        -0.402726
 C         3.287915         0.225078        -0.356561
 C         2.269363         0.842889        -1.251617
 C         1.382021         0.296521        -0.080058
 C         2.281563        -0.957897        -0.226477
 O         2.400391        -1.677712         1.064847
 C         2.513966        -0.569318         1.958846
 C         2.467350         0.657340         0.981771
 O         2.582236         1.951206         1.732572
 H         5.158824        -0.384336        -1.292963
 H         5.199499         1.266528        -0.610305
 H         5.326842        -0.282353         0.487158
 H         2.003638         1.856479        -1.229527
 H         2.285778         0.471169        -2.342961
 H         0.311425         0.380009        -0.023370
 H         2.031570        -1.612386        -0.958225
 H         1.672148        -0.584532         2.639620
 H         3.333032        -0.611059         2.658210
 H         3.399533         2.513183         1.414921
