19
Iteration:  2221charge 0 multiplicity 1
 C         4.797949         0.152837        -0.365567
 C         3.311239         0.153747        -0.194698
 C         2.246387         0.885506        -1.168079
 C         1.360888         0.247098        -0.131714
 C         2.355775        -1.017105        -0.124504
 O         2.482803        -1.638063         1.150618
 C         2.502242        -0.456456         1.996504
 C         2.392118         0.652677         1.001457
 O         2.649207         1.979171         1.387207
 H         5.136370        -0.830954        -0.076741
 H         5.027970         0.397793        -1.435238
 H         5.255563         0.903883         0.253624
 H         2.052556         1.976001        -1.086612
 H         2.148979         0.498262        -2.297667
 H         0.327792         0.408780        -0.059539
 H         2.166632        -1.701607        -1.042251
 H         1.622872        -0.449188         2.575975
 H         3.331163        -0.333519         2.717734
 H         2.329981         2.595883         0.663997
