19
Iteration:    62charge 0 multiplicity 1
 C         4.833738         0.067002        -0.489604
 C         3.298377         0.193572        -0.268654
 C         2.290030         0.798382        -1.267380
 C         1.380383         0.214079        -0.176085
 C         2.279037        -0.982094        -0.123788
 O         2.428753        -1.567271         1.212050
 C         2.589738        -0.429076         2.068116
 C         2.436507         0.701446         0.993350
 O         2.477279         2.004596         1.512453
 H         5.382345        -0.325825         0.389302
 H         5.159670        -0.564549        -1.356714
 H         5.225713         1.151093        -0.581064
 H         2.177894         1.959707        -1.357386
 H         2.437439         0.339433        -2.282139
 H         0.278888         0.284624        -0.230935
 H         2.289899        -1.775711        -0.891680
 H         1.684451        -0.450314         2.779798
 H         3.372867        -0.505134         2.890483
 H         3.295061         2.480037         1.196456
