19
Iteration:  4751
 C         4.848396         0.208771        -0.395218
 C         3.288891         0.349934        -0.304424
 C         2.232183         1.168187        -0.982461
 C         1.295323         0.258147        -0.179703
 C         2.293702        -0.852475        -0.336694
 O         2.347323        -1.672053         0.838395
 C         2.667135        -0.693473         1.886039
 C         2.439033         0.572221         1.055428
 O         2.570832         1.704630         1.854167
 H         5.390782         0.727624        -1.223579
 H         5.279057         0.542264         0.496953
 H         5.262192        -0.771876        -0.478152
 H         2.468354         2.183815        -0.691757
 H         2.254188         1.082736        -2.124131
 H         0.258615         0.271812        -0.264435
 H         2.165878        -1.489973        -1.194107
 H         2.044567        -0.803124         2.825927
 H         3.718113        -0.570749         2.199074
 H         2.784220         2.507121         1.433780
