19
Iteration:  2502charge 0 multiplicity 1
 C         4.797525         0.080055        -0.471904
 C         3.327027         0.227600        -0.249607
 C         2.316170         0.840753        -1.290848
 C         1.386025         0.287409        -0.164564
 C         2.317174        -0.958666        -0.149480
 O         2.364740        -1.656797         1.069703
 C         2.610059        -0.465075         1.941533
 C         2.469194         0.705358         1.050399
 O         2.477911         1.949682         1.747297
 H         5.056730         0.786898        -1.220300
 H         5.305342         0.413371         0.418663
 H         5.328078        -0.847101        -0.548478
 H         2.414855         1.930293        -1.392521
 H         2.111581         0.496448        -2.397362
 H         0.333226         0.297974        -0.110872
 H         2.493707        -1.649678        -0.998196
 H         1.956685        -0.560468         2.811095
 H         3.628021        -0.508141         2.249572
 H         2.307384         2.689946         1.115493
