19
Iteration:   798
 C         4.837203         0.223400        -0.462555
 C         3.331593         0.236276        -0.256600
 C         2.268453         0.851696        -1.131988
 C         1.408017         0.150424        -0.147847
 C         2.246593        -1.042487        -0.096269
 O         2.397222        -1.566027         1.177307
 C         2.510796        -0.518205         2.046966
 C         2.496520         0.678685         0.973464
 O         2.546000         1.962130         1.424679
 H         5.197316        -0.775268        -0.111412
 H         5.211275         0.323404        -1.446768
 H         5.350305         1.060395         0.076343
 H         2.391205         1.957084        -1.208803
 H         2.181612         0.432108        -2.178378
 H         0.361701         0.373555        -0.096225
 H         2.221802        -2.014337        -0.749309
 H         1.636043        -0.532800         2.751947
 H         3.437673        -0.232937         2.664962
 H         2.827870         2.460097         0.543818
