19
Iteration:  1912charge 0 multiplicity 1
 C         4.827911         0.215176        -0.372368
 C         3.273403         0.177918        -0.203416
 C         2.284726         0.878830        -1.203163
 C         1.330665         0.163603        -0.174945
 C         2.282941        -1.048301        -0.127353
 O         2.383878        -1.611307         1.162590
 C         2.593294        -0.463077         2.053038
 C         2.415153         0.664498         0.985452
 O         2.604806         2.024150         1.424033
 H         5.156968        -0.839707        -0.048813
 H         5.132218         0.356725        -1.433465
 H         5.485130         0.966852         0.240494
 H         2.124288         1.916378        -1.228908
 H         2.216979         0.409475        -2.292896
 H         0.218267         0.144111        -0.143758
 H         2.412874        -1.769119        -0.946196
 H         1.903285        -0.611650         2.905054
 H         3.692117        -0.436269         2.391603
 H         2.838380         2.543244         0.664698
