19
Iteration:  2368charge 0 multiplicity 1
 C         4.835439         0.168681        -0.433689
 C         3.374710         0.198186        -0.200397
 C         2.287424         0.868822        -1.223158
 C         1.416521         0.281415        -0.147594
 C         2.252486        -0.937795        -0.097152
 O         2.408893        -1.670036         1.106372
 C         2.598509        -0.516576         2.002009
 C         2.419694         0.734618         1.014893
 O         2.494558         1.950684         1.536687
 H         5.483019         0.653431         0.336779
 H         4.924571        -0.902811        -0.240534
 H         5.113780         0.249769        -1.522225
 H         2.297051         1.930088        -1.441199
 H         2.132964         0.385765        -2.356863
 H         0.262107         0.296267        -0.029762
 H         2.300840        -1.571191        -0.904853
 H         1.899780        -0.675870         2.814686
 H         3.606922        -0.589751         2.305390
 H         2.406937         2.515793         0.755045
