19
Iteration:  4195
 C         4.844404         0.164322        -0.454417
 C         3.374163         0.314970        -0.247561
 C         2.326192         1.239489        -1.016388
 C         1.385253         0.327617        -0.155634
 C         2.321630        -0.880236        -0.313716
 O         2.396849        -1.641501         0.848574
 C         2.463318        -0.741298         1.858576
 C         2.452456         0.586560         1.040034
 O         2.507105         1.728150         1.916480
 H         5.123039         0.448937        -1.528451
 H         5.652644         0.570912         0.202666
 H         4.836212        -0.922214        -0.465712
 H         2.317730         2.307535        -0.815963
 H         2.122785         1.079774        -2.123533
 H         0.312551         0.199693        -0.174052
 H         2.355238        -1.568885        -1.259054
 H         1.537731        -0.809700         2.434048
 H         3.295288        -0.856387         2.543445
 H         3.073721         2.370335         1.397695
