19
Iteration:  3059charge 0 multiplicity 1
 C         4.804956         0.217779        -0.428043
 C         3.256651         0.321370        -0.253549
 C         2.217949         0.991195        -1.220828
 C         1.396853         0.446500        -0.030931
 C         2.301890        -0.965302        -0.246320
 O         2.470573        -1.716728         0.938482
 C         2.526120        -0.655220         1.880527
 C         2.500758         0.661384         0.956023
 O         2.648318         1.745759         1.836648
 H         5.191328        -0.801892        -0.524515
 H         5.027844         0.752859        -1.384162
 H         5.276472         0.825027         0.393608
 H         2.444783         2.173836        -1.341503
 H         2.199212         0.523442        -2.245035
 H         0.215016         0.614411         0.038435
 H         1.983743        -1.535074        -1.098453
 H         1.509769        -0.589372         2.457786
 H         3.402535        -0.588012         2.572924
 H         1.897723         2.284516         1.825685
