19
Iteration:  1188charge 0 multiplicity 1
 C         4.793881         0.203666        -0.337253
 C         3.274982         0.235113        -0.318885
 C         2.262542         0.786108        -1.337695
 C         1.276578         0.220903        -0.125445
 C         2.315190        -0.998642        -0.096442
 O         2.502989        -1.646733         1.217270
 C         2.503720        -0.420155         1.999342
 C         2.501081         0.681484         0.924319
 O         2.645639         1.914790         1.525474
 H         5.192314        -0.217498         0.545136
 H         5.154762        -0.360855        -1.175480
 H         5.296694         1.208665        -0.476428
 H         2.148406         1.931208        -1.413842
 H         2.026086         0.493541        -2.332523
 H         0.235256         0.358611         0.068138
 H         2.243956        -1.729110        -0.851207
 H         1.551642        -0.125891         2.574229
 H         3.332607        -0.657614         2.757859
 H         2.414624         2.649327         0.904519
