19
Iteration:  1989charge 0 multiplicity 1
 C         4.728366         0.065897        -0.461251
 C         3.304099         0.265555        -0.253618
 C         2.343295         0.911769        -1.197617
 C         1.436301         0.195177        -0.074990
 C         2.384019        -1.053792        -0.132723
 O         2.430351        -1.598444         1.144567
 C         2.505967        -0.414277         2.029066
 C         2.469227         0.631869         1.003363
 O         2.487439         1.979959         1.494053
 H         5.262574        -0.629170         0.270699
 H         4.775791        -0.404307        -1.516172
 H         5.343396         1.065611        -0.567659
 H         2.618125         1.961657        -1.228390
 H         2.354120         0.586170        -2.348911
 H         0.389125         0.445233         0.049904
 H         2.298857        -1.747645        -0.991912
 H         1.809985        -0.327271         2.865800
 H         3.554916        -0.448550         2.488142
 H         1.954458         2.514125         0.797385
