19
Iteration:  3728
 C         4.900131         0.184641        -0.403161
 C         3.310318         0.393734        -0.196171
 C         2.283362         1.060074        -1.169390
 C         1.391538         0.436335        -0.053260
 C         2.331155        -0.815232        -0.298017
 O         2.357589        -1.680621         0.723954
 C         2.474140        -0.756703         1.834406
 C         2.433965         0.609715         1.116877
 O         2.592694         1.678769         1.958083
 H         5.037213        -0.800651        -0.884394
 H         5.255303         1.083398        -1.001240
 H         5.357838         0.120977         0.569975
 H         2.273163         2.217048        -1.277116
 H         2.053742         0.569532        -2.105818
 H         0.331040         0.400759        -0.051239
 H         2.132532        -1.222929        -1.352301
 H         1.681935        -0.819457         2.563978
 H         3.472274        -0.959404         2.215830
 H         2.806586         2.430348         1.416580
