19
Iteration:  4642charge 0 multiplicity 1
 C         4.857681         0.428572        -0.412002
 C         3.313700         0.253351        -0.255299
 C         2.310889         1.117830        -0.975140
 C         1.420779         0.383319        -0.030804
 C         2.280283        -0.865951        -0.293713
 O         2.285461        -1.771653         0.721549
 C         2.505383        -0.755537         1.851479
 C         2.462713         0.510567         1.103628
 O         2.647802         1.774608         1.709477
 H         5.239421        -0.298035        -1.213842
 H         5.066603         1.425783        -0.701139
 H         5.262381         0.187135         0.559485
 H         2.342892         2.159301        -0.889606
 H         2.015844         0.882888        -2.000793
 H         0.399298         0.550088         0.119648
 H         2.329887        -1.456232        -1.208983
 H         1.670693        -0.715945         2.588482
 H         3.446297        -0.900277         2.352227
 H         2.578872         1.590189         2.603951
