19
Iteration:   862charge 0 multiplicity 1
 C         4.778256         0.119259        -0.336316
 C         3.298142         0.211340        -0.239193
 C         2.269423         0.853038        -1.303300
 C         1.356222         0.280928        -0.110032
 C         2.267727        -1.026242        -0.136909
 O         2.477688        -1.619408         1.180439
 C         2.577709        -0.437080         1.946499
 C         2.457522         0.669763         0.941016
 O         2.584396         1.956402         1.519390
 H         5.316778        -0.241401         0.565778
 H         5.140612        -0.333220        -1.216313
 H         5.070341         1.216154        -0.507955
 H         2.403069         1.904947        -1.343796
 H         2.090707         0.203770        -2.308115
 H         0.239667         0.178645         0.260371
 H         2.186278        -1.776989        -1.014474
 H         1.817321        -0.563014         2.762663
 H         3.515037        -0.353259         2.555074
 H         2.272417         2.667013         0.886985
