19
Iteration:  2614
 C         4.907615         0.233846        -0.433378
 C         3.296703         0.217775        -0.348526
 C         2.250910         0.846560        -1.243653
 C         1.375411         0.316586        -0.128229
 C         2.267975        -0.965860        -0.201480
 O         2.382961        -1.674800         1.084790
 C         2.539053        -0.581117         1.968465
 C         2.491129         0.692133         0.964245
 O         2.553878         1.929644         1.740719
 H         5.126343        -0.391936        -1.241571
 H         5.245698         1.254756        -0.593752
 H         5.320744        -0.040479         0.514152
 H         2.085990         1.939804        -1.228852
 H         2.234250         0.554691        -2.269354
 H         0.300416         0.278401         0.014636
 H         1.861471        -1.720837        -1.073418
 H         1.633820        -0.625944         2.605006
 H         3.429192        -0.515361         2.604549
 H         3.327211         2.413992         1.510277
