19
Iteration:  1253
 C         4.862604         0.120303        -0.457409
 C         3.321883         0.179893        -0.273203
 C         2.328042         0.828048        -1.220669
 C         1.409634         0.231215        -0.056712
 C         2.332669        -1.071927        -0.122690
 O         2.369984        -1.638623         1.205999
 C         2.618209        -0.407427         2.020309
 C         2.434741         0.680403         0.948392
 O         2.402211         2.013350         1.475284
 H         5.310932        -0.815071        -0.141849
 H         5.010641         0.260072        -1.546156
 H         5.409631         0.875292         0.220836
 H         2.399821         2.045456        -1.323204
 H         2.113388         0.575947        -2.202250
 H         0.430487         0.466636        -0.118025
 H         2.225785        -1.695682        -0.939419
 H         1.907627        -0.419573         2.877135
 H         3.600982        -0.293709         2.518391
 H         2.636504         2.621024         0.680519
