19
Iteration:  3935charge 0 multiplicity 1
 C         4.731887         0.285800        -0.313967
 C         3.209112         0.239561        -0.175334
 C         2.365273         1.138242        -1.143832
 C         1.344611         0.399758        -0.107453
 C         2.247740        -0.889189        -0.300117
 O         2.452288        -1.674725         0.750511
 C         2.518794        -0.701805         1.850361
 C         2.350936         0.589216         1.026198
 O         2.763196         1.664093         1.844042
 H         5.219559         0.915276        -1.098321
 H         4.975731         0.641045         0.712177
 H         5.232934        -0.657759        -0.296333
 H         2.624935         2.248207        -1.157862
 H         2.382531         0.800733        -2.163146
 H         0.316298         0.585787         0.015964
 H         2.108847        -1.683107        -1.084448
 H         1.678144        -0.840714         2.537585
 H         3.547223        -0.874570         2.265338
 H         2.350969         2.631598         1.697506
