19
Iteration:  1638
 C         4.873184         0.121246        -0.395923
 C         3.336128         0.163438        -0.375095
 C         2.341155         0.818927        -1.194085
 C         1.409034         0.279217        -0.122239
 C         2.269016        -1.045312        -0.065299
 O         2.368793        -1.623376         1.199156
 C         2.634863        -0.346264         1.923640
 C         2.464904         0.715670         0.927803
 O         2.404552         1.917954         1.578341
 H         5.206081        -0.550183         0.387784
 H         5.235786        -0.242068        -1.289844
 H         5.274810         1.136143        -0.291402
 H         2.496993         1.975383        -1.340453
 H         2.234784         0.370907        -2.276805
 H         0.307690         0.437378         0.125683
 H         2.182280        -1.590365        -1.009392
 H         1.869960        -0.389645         2.658375
 H         3.644016        -0.490975         2.341655
 H         2.330826         2.491356         0.852061
