19
Iteration:  4020
 C         4.751013         0.202798        -0.453543
 C         3.331323         0.274094        -0.125676
 C         2.447994         1.223831        -0.999551
 C         1.399385         0.369222        -0.119774
 C         2.318012        -0.832664        -0.380345
 O         2.455754        -1.714420         0.793259
 C         2.455280        -0.821646         1.876092
 C         2.339987         0.558527         1.128491
 O         2.530872         1.777540         1.830841
 H         4.746655        -0.081401        -1.577567
 H         5.346848         1.102330        -0.459619
 H         5.252154        -0.629451         0.017913
 H         2.498803         2.268780        -0.739057
 H         2.333373         1.085977        -2.099198
 H         0.357278         0.388585        -0.078219
 H         2.157804        -1.338136        -1.397473
 H         1.798630        -0.872833         2.748265
 H         3.457177        -0.646018         2.264351
 H         2.848551         2.359660         1.209523
