19
Iteration:  3084
 C         4.821211         0.287597        -0.478840
 C         3.297243         0.231009        -0.394950
 C         2.239547         1.085730        -1.064927
 C         1.439933         0.302015        -0.047038
 C         2.287114        -0.969697        -0.304740
 O         2.455439        -1.641809         0.926311
 C         2.404272        -0.642914         1.981978
 C         2.492967         0.571149         1.019733
 O         2.675289         1.766182         1.797560
 H         5.284067        -0.617349         0.026914
 H         5.238778         0.395420        -1.531713
 H         5.071887         1.212569         0.056503
 H         2.205311         2.257705        -0.927882
 H         2.060579         0.818841        -2.137676
 H         0.361763         0.300979        -0.044209
 H         1.899959        -1.677384        -1.113160
 H         1.399021        -0.601613         2.565163
 H         3.267968        -0.648043         2.697203
 H         2.443947         2.526180         1.269794
