19
Iteration:   291
 C         4.795428         0.192094        -0.331170
 C         3.340714         0.165507        -0.339459
 C         2.283584         0.736387        -1.322185
 C         1.371681         0.249641        -0.147415
 C         2.313088        -0.980902        -0.145356
 O         2.309051        -1.650955         1.269595
 C         2.643680        -0.380269         2.019503
 C         2.452711         0.699208         0.907663
 O         2.584268         1.939109         1.540108
 H         5.212034        -0.350804         0.570789
 H         5.183864        -0.229465        -1.319578
 H         5.080949         1.279098        -0.282853
 H         2.450845         1.894732        -1.381193
 H         2.163700         0.242517        -2.322052
 H         0.281994         0.226877        -0.152010
 H         2.099035        -1.696883        -0.893316
 H         1.861430        -0.052285         2.723545
 H         3.598621        -0.430991         2.538438
 H         2.464433         2.668064         0.846509
