19
Iteration:  1972
 C         4.854398         0.064347        -0.456011
 C         3.332860         0.187867        -0.255170
 C         2.288243         0.825329        -1.221881
 C         1.371356         0.274489        -0.096857
 C         2.296585        -0.976386        -0.110686
 O         2.509636        -1.619850         1.149371
 C         2.518501        -0.440221         1.976724
 C         2.472961         0.741277         0.956376
 O         2.514830         1.991627         1.548874
 H         5.188777        -0.751753         0.144845
 H         5.074346        -0.263706        -1.467088
 H         5.391105         0.898422        -0.141248
 H         1.996208         1.908877        -1.338910
 H         2.177117         0.253063        -2.082545
 H         0.265285         0.112869        -0.015978
 H         2.194768        -1.671899        -1.022749
 H         1.525367        -0.477072         2.457351
 H         3.286690        -0.411555         2.728711
 H         2.001736         2.685384         1.036814
