19
Iteration:  1257
 C         4.860558         0.105864        -0.455207
 C         3.341543         0.170424        -0.297677
 C         2.308671         0.834988        -1.219367
 C         1.406045         0.214939        -0.051295
 C         2.331647        -1.031410        -0.114364
 O         2.352387        -1.614139         1.195518
 C         2.652264        -0.394336         2.031921
 C         2.419698         0.686651         0.951240
 O         2.399775         2.008881         1.481649
 H         5.297431        -0.849466        -0.146146
 H         5.156091         0.338913        -1.467444
 H         5.320618         0.869384         0.111554
 H         2.532056         1.839075        -1.212998
 H         2.257622         0.462961        -2.312617
 H         0.249183         0.383957        -0.124001
 H         2.279853        -1.812025        -0.962711
 H         1.872343        -0.554364         2.804857
 H         3.650295        -0.309331         2.508805
 H         2.597604         2.616474         0.805818
