19
Iteration:    56
 C         4.829524         0.092079        -0.468242
 C         3.294719         0.160776        -0.229318
 C         2.287682         0.812273        -1.270818
 C         1.430297         0.238757        -0.150893
 C         2.300116        -1.025063        -0.144001
 O         2.407027        -1.555323         1.191381
 C         2.569541        -0.380470         2.055150
 C         2.433023         0.663521         1.002016
 O         2.468980         2.004108         1.520358
 H         5.466449        -0.349637         0.310954
 H         5.024061        -0.512127        -1.351162
 H         5.243843         1.041902        -0.723372
 H         2.337284         1.873419        -1.367091
 H         2.296915         0.326774        -2.233434
 H         0.343815         0.275794        -0.169436
 H         2.210418        -1.834419        -0.859645
 H         1.771035        -0.457893         2.755142
 H         3.521144        -0.457738         2.587494
 H         3.123866         2.522499         1.118865
