19
Iteration:  2148charge 0 multiplicity 1
 C         4.784562         0.088587        -0.450968
 C         3.321216         0.196704        -0.335607
 C         2.352390         0.870346        -1.260600
 C         1.452306         0.272619        -0.176539
 C         2.310664        -0.998817        -0.128709
 O         2.348340        -1.576167         1.236995
 C         2.623240        -0.477268         2.052536
 C         2.466899         0.659943         1.049642
 O         2.441490         1.958713         1.525163
 H         5.137300        -0.953897        -0.214965
 H         4.974890         0.342895        -1.544400
 H         5.311471         0.847171         0.133788
 H         2.163478         1.977098        -1.244074
 H         2.319927         0.537857        -2.276088
 H         0.308194         0.050481        -0.260681
 H         2.392400        -1.768174        -0.872599
 H         2.058842        -0.343815         3.044005
 H         3.681964        -0.385899         2.321042
 H         2.375757         2.577604         0.707952
