19
Iteration:  1787
 C         4.834953         0.106280        -0.426989
 C         3.317907         0.098221        -0.292252
 C         2.265358         0.926560        -1.120020
 C         1.454203         0.292198        -0.091814
 C         2.281025        -0.993033        -0.131191
 O         2.447877        -1.647055         1.180335
 C         2.549351        -0.434140         1.958833
 C         2.497320         0.670068         0.938959
 O         2.407920         1.950433         1.462117
 H         5.243594        -0.155823         0.579659
 H         5.149783        -0.709610        -1.191069
 H         5.282216         1.131055        -0.776218
 H         2.530227         2.046849        -1.010925
 H         2.108416         0.646478        -2.182911
 H         0.310494         0.489810         0.072668
 H         2.547997        -1.833183        -0.835281
 H         1.735543        -0.371336         2.765339
 H         3.548064        -0.429290         2.420319
 H         2.545342         2.679099         0.830466
