19
Iteration:  4753charge 0 multiplicity 1
 C         4.848867         0.229549        -0.404234
 C         3.289390         0.346188        -0.294007
 C         2.237184         1.165499        -0.971808
 C         1.286596         0.263347        -0.208227
 C         2.288913        -0.858280        -0.341604
 O         2.350036        -1.668238         0.847711
 C         2.668805        -0.701634         1.888034
 C         2.435687         0.537726         1.067888
 O         2.578222         1.717247         1.848208
 H         5.378129         0.750345        -1.214097
 H         5.323741         0.532131         0.540685
 H         5.222612        -0.829247        -0.481766
 H         2.409822         2.223256        -0.724791
 H         2.265557         1.151353        -2.083788
 H         0.215406         0.290887        -0.256142
 H         2.170912        -1.537845        -1.177615
 H         2.011141        -0.799151         2.803902
 H         3.717415        -0.611286         2.209726
 H         2.860712         2.592946         1.392700
