19
Iteration:  1945
 C         4.791527         0.139390        -0.390696
 C         3.307458         0.094329        -0.407038
 C         2.240719         0.831149        -1.307341
 C         1.399052         0.310044        -0.100547
 C         2.322256        -1.032493        -0.141150
 O         2.548676        -1.546906         1.165820
 C         2.455460        -0.392434         2.045937
 C         2.442626         0.721139         0.949645
 O         2.563228         1.918715         1.589224
 H         4.924169        -0.936452         0.029956
 H         5.388563         0.094439        -1.344392
 H         5.279679         0.819291         0.438827
 H         2.198344         1.875332        -1.487812
 H         1.764753         0.334414        -2.285069
 H         0.413351         0.046990         0.211007
 H         2.374060        -1.806826        -0.914121
 H         1.565764        -0.584751         2.658582
 H         3.329903        -0.262929         2.786111
 H         2.569829         2.769069         1.016687
