19
Iteration:  3442
 C         4.782985         0.283831        -0.388197
 C         3.274295         0.263950        -0.226606
 C         2.250554         1.260950        -0.883066
 C         1.370051         0.256812        -0.145075
 C         2.309597        -0.852331        -0.374538
 O         2.369484        -1.723617         0.814045
 C         2.476977        -0.759260         1.836616
 C         2.486673         0.552325         1.062066
 O         2.736551         1.740512         1.762411
 H         5.025018        -0.600619        -0.996853
 H         5.284884         1.181402        -0.676333
 H         5.314588         0.042636         0.541633
 H         2.339200         2.353594        -0.576969
 H         2.202293         1.318073        -1.935436
 H         0.277787         0.174544        -0.197753
 H         2.243263        -1.485834        -1.225042
 H         1.627808        -0.692476         2.515065
 H         3.402908        -0.693988         2.443138
 H         2.278774         2.391253         1.283911
