19
Iteration:  1601
 C         4.753490         0.082481        -0.421582
 C         3.302894         0.275667        -0.285151
 C         2.272847         0.866047        -1.281344
 C         1.375275         0.292626        -0.128722
 C         2.418182        -0.986663        -0.088037
 O         2.444560        -1.606886         1.143556
 C         2.514855        -0.437290         2.042062
 C         2.430943         0.656321         1.016699
 O         2.578202         1.932403         1.504528
 H         5.088060        -0.181229         0.569038
 H         5.079057        -0.727279        -1.099368
 H         5.314988         0.988261        -0.621431
 H         2.399192         1.912858        -1.454864
 H         2.136719         0.275307        -2.360971
 H         0.258278         0.088348        -0.243731
 H         2.617797        -1.798569        -0.820342
 H         1.630732        -0.602335         2.735593
 H         3.405397        -0.275005         2.691496
 H         1.989704         2.472808         0.967980
