19
Iteration:  2695charge 0 multiplicity 1
 C         4.736208         0.097607        -0.383449
 C         3.252649         0.223373        -0.364549
 C         2.249843         1.036352        -1.155309
 C         1.379774         0.292226        -0.031686
 C         2.251534        -0.915539        -0.183285
 O         2.573495        -1.604117         1.001287
 C         2.511780        -0.569254         1.973048
 C         2.566752         0.602465         1.020821
 O         2.523571         1.909492         1.510150
 H         5.101361        -0.975710        -0.395017
 H         5.162683         0.593020        -1.265076
 H         5.199718         0.463864         0.564824
 H         2.205153         2.125236        -1.009891
 H         2.007615         0.633678        -2.148228
 H         0.273804         0.148146         0.016901
 H         2.261580        -1.605845        -0.993223
 H         1.551787        -0.435854         2.514106
 H         3.426382        -0.656629         2.687903
 H         2.979662         1.968000         2.301972
