19
Iteration:  4061charge 0 multiplicity 1
 C         4.881550         0.207211        -0.369152
 C         3.378135         0.346011        -0.325841
 C         2.175415         1.227048        -1.172122
 C         1.522773         0.411821        -0.064103
 C         2.228703        -0.840497        -0.430863
 O         2.405123        -1.738062         0.858158
 C         2.439444        -0.654083         1.851252
 C         2.565008         0.573859         1.042414
 O         2.546959         1.610478         1.996056
 H         5.268280        -0.589815        -1.021110
 H         5.356285         1.096346        -0.719606
 H         5.194545        -0.081226         0.655288
 H         2.516223         2.230372        -1.031295
 H         1.927223         0.856290        -2.185325
 H         0.402475         0.323203         0.109540
 H         1.956199        -1.441063        -1.294903
 H         1.516177        -0.845319         2.394145
 H         3.197381        -0.905634         2.534544
 H         2.246836         2.479905         1.491193
