19
Iteration:  3974
 C         4.916954         0.232317        -0.283173
 C         3.358727         0.295697        -0.331795
 C         2.164800         1.198220        -1.091577
 C         1.403805         0.293195        -0.042211
 C         2.315298        -0.923205        -0.337027
 O         2.267713        -1.636393         0.783619
 C         2.538141        -0.717988         1.829747
 C         2.502262         0.612306         1.033311
 O         2.638584         1.685674         1.845134
 H         5.338997         0.796812        -1.145925
 H         5.204457         0.805148         0.587471
 H         5.360448        -0.787259        -0.169680
 H         2.195183         2.230601        -0.876733
 H         2.204053         0.883448        -2.171892
 H         0.326659         0.373941         0.259387
 H         2.171695        -1.384587        -1.306703
 H         1.667746        -0.862454         2.493643
 H         3.431356        -0.870424         2.415892
 H         2.301032         2.476760         1.498180
