19
Iteration:   644charge 0 multiplicity 1
 C         4.839174         0.276061        -0.470210
 C         3.325868         0.173736        -0.330591
 C         2.349060         0.790974        -1.260176
 C         1.397566         0.166829        -0.200361
 C         2.269844        -1.105574        -0.114260
 O         2.296056        -1.566474         1.218610
 C         2.619143        -0.480433         2.034364
 C         2.457554         0.702768         0.988127
 O         2.507395         1.990284         1.611503
 H         5.343619        -0.073161         0.440316
 H         5.145522        -0.358780        -1.261718
 H         5.301365         1.314084        -0.707094
 H         2.334866         1.917910        -1.484067
 H         2.363896         0.385755        -2.291723
 H         0.312832         0.388123        -0.087851
 H         2.118697        -1.890923        -0.809489
 H         1.829927        -0.365207         2.813580
 H         3.644703        -0.596890         2.483678
 H         2.744948         2.551103         0.845365
