19
Iteration:  3356
 C         4.807813         0.206695        -0.490174
 C         3.279332         0.330772        -0.217303
 C         2.269442         1.252628        -0.965887
 C         1.363367         0.308928        -0.078601
 C         2.365009        -0.879271        -0.303951
 O         2.363764        -1.731961         0.804204
 C         2.565834        -0.759237         1.886251
 C         2.427737         0.522788         1.110277
 O         2.661388         1.817113         1.710604
 H         4.967624        -0.454891        -1.385742
 H         5.238409         1.274095        -0.622811
 H         5.273173        -0.298126         0.362519
 H         2.232020         2.307071        -0.555672
 H         2.316081         1.173284        -2.021859
 H         0.285970         0.511784         0.067932
 H         2.367226        -1.374088        -1.283252
 H         1.775080        -1.112219         2.573411
 H         3.583249        -0.961088         2.267353
 H         1.723397         2.113044         2.044085
