19
Iteration:  2422
 C         4.833275         0.241411        -0.318838
 C         3.349524         0.210437        -0.265193
 C         2.245820         0.929365        -1.229586
 C         1.321203         0.261781        -0.136909
 C         2.254484        -1.032928        -0.208703
 O         2.407093        -1.640960         1.110578
 C         2.536237        -0.503732         2.034927
 C         2.480437         0.653790         0.959301
 O         2.645307         1.900274         1.539517
 H         5.258909         1.251966        -0.584580
 H         5.268207        -0.053253         0.614767
 H         5.112510        -0.387776        -1.205715
 H         2.155321         1.999230        -1.409761
 H         2.236668         0.224535        -2.229771
 H         0.177024         0.396742        -0.013634
 H         2.049776        -1.812184        -0.882168
 H         1.748862        -0.493034         2.795261
 H         3.464426        -0.662030         2.606597
 H         2.543852         2.609539         0.866018
