19
Iteration:   976
 C         4.805561         0.138472        -0.352970
 C         3.250540         0.220711        -0.375747
 C         2.248097         0.844598        -1.294423
 C         1.397193         0.213668        -0.078909
 C         2.363550        -1.031679        -0.112923
 O         2.467098        -1.564134         1.187415
 C         2.475800        -0.403034         2.000925
 C         2.479103         0.644698         0.929370
 O         2.606870         1.936194         1.529536
 H         5.195582        -0.658240         0.276049
 H         5.050926         0.049787        -1.416566
 H         5.153081         1.052315         0.033899
 H         2.256386         1.977716        -1.272596
 H         2.140731         0.362971        -2.205133
 H         0.446390         0.082835         0.155462
 H         2.107175        -1.763224        -0.842340
 H         1.579901        -0.466834         2.679209
 H         3.363374        -0.392201         2.732698
 H         2.393176         2.620103         0.781163
