19
Iteration:   756
 C         4.883398         0.163907        -0.402402
 C         3.319186         0.181646        -0.289586
 C         2.304904         0.814896        -1.246412
 C         1.384375         0.217702        -0.109526
 C         2.258054        -1.041897        -0.107914
 O         2.381708        -1.569476         1.195933
 C         2.595685        -0.424797         1.973480
 C         2.504178         0.669051         0.919608
 O         2.469908         1.988957         1.546923
 H         5.198933        -0.840021         0.012679
 H         5.177956         0.106632        -1.474819
 H         5.365046         1.017510         0.095401
 H         2.168557         1.955955        -1.400499
 H         2.336479         0.445924        -2.206212
 H         0.351497         0.353516         0.059629
 H         2.246549        -1.888977        -0.908845
 H         1.946195        -0.335581         2.856175
 H         3.621272        -0.743270         2.290976
 H         2.063777         2.599985         0.924897
