19
Iteration:  2745
 C         4.766542         0.243929        -0.421449
 C         3.262694         0.264435        -0.215728
 C         2.263755         0.941194        -1.198157
 C         1.417300         0.277680        -0.095095
 C         2.292832        -0.946132        -0.235743
 O         2.350440        -1.629425         0.993880
 C         2.609612        -0.621757         1.981300
 C         2.485073         0.569963         1.034675
 O         2.541987         1.931379         1.597912
 H         5.264477        -0.402293         0.293024
 H         5.092225        -0.037128        -1.445891
 H         5.272508         1.166147        -0.087144
 H         2.375150         2.088843        -1.342296
 H         2.262845         0.436875        -2.177813
 H         0.332022         0.460927         0.105746
 H         2.016376        -1.732993        -1.134704
 H         1.880305        -0.553553         2.825017
 H         3.618160        -0.698508         2.449144
 H         3.525302         2.035730         1.820989
