19
Iteration:  3617
 C         4.808765         0.237048        -0.288307
 C         3.318600         0.219196        -0.423603
 C         2.297322         1.211409        -1.139485
 C         1.371150         0.466114        -0.141526
 C         2.245145        -0.932154        -0.274924
 O         2.387051        -1.683856         0.940153
 C         2.559564        -0.699940         1.817149
 C         2.413783         0.569208         0.970570
 O         2.658435         1.625826         1.908631
 H         5.439798         0.703519        -1.091102
 H         5.295894         0.874214         0.448285
 H         5.256670        -0.762917        -0.301081
 H         2.420320         2.386486        -1.016127
 H         2.087898         1.027396        -2.200126
 H         0.278661         0.489340        -0.101475
 H         1.902761        -1.475340        -1.244147
 H         1.748272        -0.704789         2.542073
 H         3.509520        -0.678207         2.385337
 H         2.264743         2.548343         1.736580
