19
Iteration:  3516
 C         4.826829         0.209315        -0.404554
 C         3.321140         0.354533        -0.302013
 C         2.297839         1.135089        -1.115409
 C         1.412648         0.454551        -0.124261
 C         2.368876        -0.877913        -0.330584
 O         2.312384        -1.738756         0.877747
 C         2.543268        -0.745184         1.860800
 C         2.406824         0.625794         1.070591
 O         2.535341         1.738922         1.850461
 H         5.274624         0.461139        -1.386479
 H         5.292487         0.767743         0.343355
 H         5.339640        -0.807788        -0.271531
 H         2.298085         2.243520        -0.967201
 H         2.091529         0.760733        -2.162254
 H         0.327762         0.212548        -0.200390
 H         2.072778        -1.390941        -1.155701
 H         1.778273        -0.644473         2.649602
 H         3.534993        -0.790871         2.245737
 H         3.390076         1.656175         2.371952
