19
Iteration:  1468
 C         4.822689         0.078920        -0.364902
 C         3.285517         0.155161        -0.327973
 C         2.269854         0.904770        -1.182533
 C         1.430150         0.210795        -0.090656
 C         2.311486        -1.040930        -0.148831
 O         2.530707        -1.640253         1.143498
 C         2.464416        -0.409739         2.074247
 C         2.430083         0.717127         1.013598
 O         2.558879         2.053610         1.404166
 H         5.206421        -0.795369         0.127646
 H         5.166099         0.172864        -1.399868
 H         5.116172         0.942163         0.098944
 H         2.278939         1.980817        -1.224852
 H         2.195519         0.349556        -2.260328
 H         0.319023         0.202785         0.039233
 H         2.119429        -1.744181        -0.896483
 H         1.606868        -0.617211         2.797937
 H         3.412134        -0.595109         2.592751
 H         2.085517         2.448390         0.664130
