19
Iteration:  2955charge 0 multiplicity 1
 C         4.738341         0.266545        -0.392500
 C         3.273947         0.334858        -0.290426
 C         2.263274         0.994998        -1.212305
 C         1.328095         0.349469        -0.074905
 C         2.393809        -0.906187        -0.199493
 O         2.426984        -1.700701         0.966869
 C         2.455175        -0.631378         1.919720
 C         2.443575         0.637784         0.994201
 O         2.673588         1.801386         1.698133
 H         4.869022         0.379396        -1.489728
 H         5.368425         0.916467         0.223793
 H         5.101338        -0.743479        -0.341049
 H         2.167449         1.981320        -1.530385
 H         2.274761         0.428157        -2.127000
 H         0.297204         0.391325         0.111618
 H         2.323173        -1.623151        -1.111997
 H         1.671797        -0.566803         2.638120
 H         3.350811        -0.558016         2.587063
 H         3.313592         1.578908         2.440825
