19
Iteration:  4286
 C         4.836911         0.306392        -0.234511
 C         3.318011         0.228748        -0.363181
 C         2.218569         1.140034        -1.170586
 C         1.399846         0.364481        -0.125916
 C         2.220970        -0.844204        -0.386410
 O         2.381904        -1.695980         0.797107
 C         2.472965        -0.645072         1.885846
 C         2.472153         0.594892         1.010936
 O         2.740201         1.620870         1.919484
 H         5.437590         0.346406        -1.157979
 H         5.193381         1.190336         0.524276
 H         5.248825        -0.645973         0.306437
 H         1.933979         2.251798        -1.101249
 H         1.973773         0.747683        -2.177219
 H         0.390446         0.350356         0.274656
 H         2.135760        -1.484887        -1.256542
 H         1.635772        -0.658499         2.595747
 H         3.444163        -0.769692         2.403555
 H         2.487205         2.465193         1.697303
