19
Iteration:   342charge 0 multiplicity 1
 C         4.804778         0.115668        -0.468180
 C         3.345971         0.200286        -0.250537
 C         2.294027         0.923485        -1.212250
 C         1.396687         0.292997        -0.085950
 C         2.383088        -1.051560        -0.032382
 O         2.489878        -1.609805         1.220962
 C         2.347157        -0.493404         2.046311
 C         2.446370         0.648629         0.948851
 O         2.610535         2.003680         1.339296
 H         5.130274        -0.706961         0.200932
 H         5.096610        -0.006286        -1.478472
 H         5.207108         0.981222        -0.067777
 H         2.361345         1.913829        -1.277348
 H         2.126185         0.529225        -2.239080
 H         0.329261         0.250463         0.275769
 H         2.460982        -1.980429        -0.733713
 H         1.375280        -0.464894         2.577100
 H         3.159803        -0.525231         2.785816
 H         2.041166         2.424746         0.618737
