19
Iteration:  4087
 C         4.777731         0.305663        -0.331125
 C         3.310622         0.279165        -0.181234
 C         2.341046         1.119235        -1.069647
 C         1.364362         0.416747        -0.107790
 C         2.280018        -0.856001        -0.366155
 O         2.370082        -1.683433         0.773766
 C         2.480851        -0.788789         1.821224
 C         2.409672         0.568770         1.059858
 O         2.692586         1.706389         1.860054
 H         5.177230        -0.530701        -0.968497
 H         5.143991         1.213967        -0.851409
 H         5.230812         0.133901         0.627633
 H         2.680475         2.084765        -0.751617
 H         2.291112         0.961418        -2.150782
 H         0.355499         0.713278         0.009031
 H         2.242067        -1.460397        -1.323374
 H         1.825115        -1.152566         2.601297
 H         3.509450        -1.010460         2.193254
 H         2.072182         2.480217         1.547401
