19
Iteration:  4874charge 0 multiplicity 1
 C         4.788192         0.202057        -0.417568
 C         3.347654         0.390739        -0.316314
 C         2.289294         1.248011        -0.982182
 C         1.410920         0.391070         0.026903
 C         2.271940        -0.981414        -0.321491
 O         2.384833        -1.739231         0.813063
 C         2.639657        -0.792456         1.851658
 C         2.538406         0.549129         1.022611
 O         2.474841         1.809887         1.765814
 H         5.365945         0.457944        -1.261342
 H         5.291640         0.798710         0.381698
 H         5.021019        -0.877569        -0.181697
 H         2.396196         2.359510        -0.935586
 H         2.023966         1.073364        -2.040793
 H         0.379083         0.649973         0.414243
 H         2.077635        -1.658906        -1.196134
 H         1.872139        -0.926186         2.687865
 H         3.658996        -0.945383         2.237491
 H         1.829380         2.193513         1.240759
