19
Iteration:  3817charge 0 multiplicity 1
 C         4.907813         0.198659        -0.370135
 C         3.370710         0.382418        -0.320070
 C         2.216536         1.146918        -1.113165
 C         1.369177         0.404379        -0.040882
 C         2.354472        -0.848410        -0.418271
 O         2.339513        -1.737312         0.791316
 C         2.447173        -0.792883         1.888777
 C         2.454391         0.604931         1.102189
 O         2.665582         1.739218         1.897761
 H         5.180660        -0.702665        -0.862695
 H         5.587054         1.060379        -0.623636
 H         5.197464         0.039460         0.692355
 H         2.181074         2.288573        -1.138504
 H         2.054183         0.774630        -2.166467
 H         0.278686         0.539045         0.133314
 H         2.175938        -1.427559        -1.318927
 H         1.517460        -0.771708         2.446303
 H         3.290762        -1.107340         2.488702
 H         2.119978         2.464386         1.557542
