19
Iteration:   264
 C         4.871527         0.138193        -0.317176
 C         3.343737         0.167956        -0.293742
 C         2.259892         0.804863        -1.244930
 C         1.354252         0.207765        -0.095478
 C         2.270632        -1.043992        -0.100040
 O         2.338254        -1.555815         1.155763
 C         2.668089        -0.443169         2.005415
 C         2.457377         0.717746         0.937148
 O         2.474974         2.007189         1.456585
 H         5.314521        -0.278893         0.555256
 H         5.100133        -0.464035        -1.142762
 H         5.168138         1.130427        -0.539957
 H         2.364131         1.792147        -1.411304
 H         2.410718         0.300099        -2.215147
 H         0.249896         0.320964        -0.120118
 H         2.089024        -1.928217        -0.828918
 H         1.928731        -0.365323         2.818189
 H         3.658650        -0.583506         2.462596
 H         3.090924         2.612895         0.908698
