19
Iteration:   213charge 0 multiplicity 1
 C         4.907813         0.071589        -0.491576
 C         3.319218         0.145731        -0.235302
 C         2.252330         0.836987        -1.164791
 C         1.350567         0.199261        -0.108471
 C         2.224891        -0.949466        -0.146266
 O         2.602155        -1.551104         1.198163
 C         2.363682        -0.408614         2.053257
 C         2.434574         0.696885         1.018770
 O         2.532183         1.990615         1.351147
 H         5.234366        -0.607461         0.413547
 H         5.129504        -0.536656        -1.408658
 H         5.294688         1.075874        -0.493852
 H         2.279200         1.974217        -1.240709
 H         2.164822         0.475425        -2.257435
 H         0.235574         0.134970        -0.085810
 H         2.347311        -1.694887        -0.948944
 H         1.421698        -0.436231         2.626346
 H         3.216364        -0.317541         2.739780
 H         3.392149         2.144646         1.732693
