19
Iteration:  4783
 C         4.751544         0.365048        -0.407632
 C         3.284843         0.305080        -0.249360
 C         2.271958         1.170735        -0.965711
 C         1.395630         0.324114        -0.010502
 C         2.353388        -0.876437        -0.302069
 O         2.382694        -1.804934         0.808546
 C         2.455982        -0.761623         1.905146
 C         2.462477         0.503657         1.062556
 O         2.663254         1.787037         1.676283
 H         5.011454         1.207250        -1.105054
 H         5.137526         0.695982         0.514332
 H         5.122337        -0.592728        -0.721067
 H         2.490789         2.220421        -0.811177
 H         2.196903         1.064307        -2.103953
 H         0.354622         0.282063         0.096625
 H         2.184329        -1.408573        -1.220197
 H         1.531981        -0.874272         2.528369
 H         3.414496        -0.842399         2.449548
 H         3.211618         2.499242         1.200340
