19
Iteration:  2749
 C         4.753875         0.268432        -0.439595
 C         3.273841         0.243584        -0.218044
 C         2.286293         0.989338        -1.176379
 C         1.440896         0.273174        -0.093695
 C         2.254562        -0.969754        -0.210205
 O         2.338474        -1.651184         0.999605
 C         2.600135        -0.640429         1.960584
 C         2.526353         0.548382         1.041676
 O         2.527280         1.953842         1.583042
 H         5.272903        -0.342031         0.344753
 H         5.181032        -0.098665        -1.360835
 H         5.258781         1.199685        -0.231617
 H         2.403407         2.038472        -1.338361
 H         2.235522         0.528457        -2.148371
 H         0.358588         0.376163         0.093122
 H         2.013377        -1.719421        -1.061287
 H         1.927093        -0.461083         2.795674
 H         3.549355        -0.761466         2.402173
 H         3.408136         2.190407         1.782756
