19
Iteration:  3290charge 0 multiplicity 1
 C         4.732330         0.245309        -0.433731
 C         3.241573         0.341941        -0.262405
 C         2.233311         1.100862        -1.140211
 C         1.316446         0.263206        -0.235147
 C         2.288393        -0.870043        -0.318082
 O         2.369496        -1.690661         0.835100
 C         2.624187        -0.652930         1.856695
 C         2.435734         0.654375         1.090542
 O         2.721779         1.688827         1.993839
 H         5.138042         0.940521        -1.189456
 H         5.220865         0.718132         0.486206
 H         5.046725        -0.787891        -0.532632
 H         2.044389         2.193862        -0.951774
 H         2.285534         0.792925        -2.140710
 H         0.249494         0.042779         0.086896
 H         2.378943        -1.483923        -1.220091
 H         1.869173        -0.717502         2.656075
 H         3.645702        -0.556159         2.298654
 H         3.295170         2.232215         1.529777
