19
Iteration:  2164charge 0 multiplicity 1
 C         4.877641         0.050964        -0.482393
 C         3.338797         0.200019        -0.290278
 C         2.276128         0.899213        -1.278243
 C         1.355257         0.199023        -0.152787
 C         2.367202        -1.019817        -0.091620
 O         2.411715        -1.590289         1.220051
 C         2.600462        -0.346697         2.020058
 C         2.383220         0.705434         0.898277
 O         2.462657         1.903223         1.608628
 H         5.138099        -0.964964        -0.267384
 H         5.268909         0.278763        -1.441643
 H         5.409978         0.606737         0.307856
 H         2.469406         2.043183        -1.450972
 H         2.135416         0.523001        -2.360469
 H         0.340827         0.377213         0.010571
 H         2.089536        -1.799233        -0.856682
 H         1.780826        -0.341823         2.682436
 H         3.580155        -0.360429         2.555597
 H         2.510488         2.717951         1.069025
