19
Iteration:  1359charge 0 multiplicity 1
 C         4.816213         0.240040        -0.413129
 C         3.329141         0.145273        -0.249733
 C         2.249815         0.910205        -1.206927
 C         1.441435         0.225660        -0.158484
 C         2.381621        -1.096759        -0.163225
 O         2.362612        -1.648357         1.216890
 C         2.518148        -0.406453         2.054777
 C         2.425917         0.671602         0.949773
 O         2.589996         1.960786         1.459624
 H         5.265648        -0.074642         0.516918
 H         5.181536        -0.548329        -1.095219
 H         5.216377         1.181933        -0.748939
 H         2.177405         1.946870        -1.207967
 H         2.024184         0.478247        -2.201218
 H         0.280846         0.091514         0.063373
 H         2.280131        -1.754773        -0.988548
 H         1.644720        -0.320196         2.742441
 H         3.460069        -0.594321         2.566875
 H         2.384801         2.665076         0.751474
