19
Iteration:  1607
 C         4.752301         0.072012        -0.403808
 C         3.318397         0.249400        -0.317852
 C         2.267292         0.821509        -1.290010
 C         1.384931         0.278708        -0.188380
 C         2.409563        -0.966881        -0.142315
 O         2.430652        -1.602061         1.183271
 C         2.548636        -0.433807         2.073208
 C         2.414587         0.668998         1.026378
 O         2.563125         1.953629         1.545328
 H         5.149673        -0.233058         0.631967
 H         5.103760        -0.656530        -1.209227
 H         5.286056         1.019608        -0.657339
 H         2.279699         1.935072        -1.519588
 H         2.247365         0.307955        -2.119425
 H         0.329377         0.237726        -0.192835
 H         2.503534        -1.608810        -1.014601
 H         1.722952        -0.639626         2.734516
 H         3.504890        -0.432866         2.614033
 H         1.928328         2.516217         0.970196
