19
Iteration:  2803charge 0 multiplicity 1
 C         4.731902         0.199454        -0.481037
 C         3.300715         0.306631        -0.268916
 C         2.276012         1.016533        -1.138021
 C         1.406266         0.240228        -0.100887
 C         2.351781        -0.943953        -0.226997
 O         2.401044        -1.691186         1.010223
 C         2.515148        -0.633217         2.007875
 C         2.495990         0.607223         1.012352
 O         2.565307         1.949485         1.605552
 H         5.363754         0.296220         0.411167
 H         5.019915        -0.780233        -0.834963
 H         5.021263         0.853648        -1.247607
 H         2.270737         2.085103        -0.892140
 H         2.289138         0.833020        -2.211707
 H         0.324920         0.368185         0.019199
 H         2.153210        -1.599695        -1.207547
 H         1.582350        -0.547681         2.575205
 H         3.371738        -0.726203         2.637958
 H         3.307172         1.916935         2.217217
