19
Iteration:  4401charge 0 multiplicity 1
 C         4.856064         0.194418        -0.356875
 C         3.326462         0.291604        -0.275127
 C         2.304167         1.184610        -1.175771
 C         1.334537         0.469407        -0.068624
 C         2.329011        -0.856649        -0.355556
 O         2.406720        -1.761316         0.742722
 C         2.517563        -0.752340         1.885245
 C         2.401412         0.616122         1.088925
 O         2.619856         1.733782         1.971427
 H         4.850642        -0.296029        -1.404831
 H         5.272097         1.195780        -0.354515
 H         5.317400        -0.430246         0.399666
 H         2.457515         2.292539        -1.266724
 H         2.252299         0.713691        -2.210566
 H         0.278328         0.455119         0.229024
 H         2.243455        -1.500757        -1.327586
 H         1.703260        -1.080844         2.573243
 H         3.482633        -0.692209         2.441204
 H         1.993049         2.357841         1.566967
