19
Iteration:  4328
 C         4.855808         0.203786        -0.451602
 C         3.288650         0.311964        -0.156935
 C         2.369232         1.253017        -0.953820
 C         1.334071         0.289437        -0.052869
 C         2.309806        -0.851043        -0.386879
 O         2.394643        -1.711352         0.742494
 C         2.447910        -0.777916         1.957968
 C         2.436516         0.540914         1.089273
 O         2.587325         1.769747         1.755584
 H         4.904344        -0.336890        -1.371405
 H         5.127559         1.221209        -0.552495
 H         5.425900        -0.211536         0.363333
 H         2.646669         2.289577        -0.732051
 H         2.350688         1.248202        -2.063684
 H         0.256647         0.297386         0.035006
 H         2.459010        -1.331209        -1.403350
 H         1.600860        -0.930146         2.619303
 H         3.391711        -1.066978         2.427985
 H         2.719758         2.580593         1.143380
