19
Iteration:   665
 C        -0.237933         0.108639         0.412857
 C         1.365031        -0.051557         0.136611
 C         2.140309         1.227667         0.344460
 O         3.480298         0.884495         0.105017
 C         3.343028        -0.493690         0.037194
 C         2.216033        -1.057731         0.917984
 C         1.916284        -2.167906        -0.028339
 C         2.091677        -0.873234        -0.920446
 O         2.045030        -0.666912        -2.481033
 H        -0.464866         1.152299         0.807707
 H        -0.784601         0.133129        -0.567004
 H        -0.621393        -0.780696         0.958487
 H         1.750417         2.032674        -0.339057
 H         2.236836         1.560927         1.451041
 H         4.440641        -0.772579        -0.120524
 H         2.234990        -1.121028         2.065041
 H         2.710378        -2.934630        -0.110602
 H         0.905594        -2.729183        -0.048948
 H         1.236807        -1.181014        -2.815636
