19
Iteration:   832charge 0 multiplicity 1
 C        -0.268580         0.004433         0.493357
 C         1.302547         0.020879         0.080202
 C         2.084663         1.321728         0.364489
 O         3.479549         0.884776         0.089377
 C         3.337870        -0.495774        -0.020019
 C         2.149512        -1.011061         0.896935
 C         1.918006        -2.107705        -0.148287
 C         2.191652        -0.848327        -0.985919
 O         2.055956        -0.855706        -2.337746
 H        -0.334558        -0.071027         1.573774
 H        -0.555127         1.124047         0.046888
 H        -0.857807        -0.802283         0.174609
 H         1.856639         2.139250        -0.302604
 H         2.024682         1.591452         1.440704
 H         4.216493        -1.076192         0.062711
 H         2.216187        -1.167529         1.939213
 H         2.726640        -2.923707         0.016894
 H         0.963366        -2.614018        -0.256048
 H         2.641891        -0.135455        -2.825490
