19
Iteration:   736
 C        -0.151358        -0.056485         0.189405
 C         1.326222        -0.003206         0.102356
 C         2.173685         1.286089         0.245028
 O         3.499468         0.836621         0.130229
 C         3.392470        -0.559190        -0.012306
 C         2.213741        -0.970594         0.944049
 C         1.930225        -2.191792        -0.038070
 C         2.167499        -0.882049        -0.878687
 O         1.818854        -0.624181        -2.231363
 H        -0.445634        -0.068993         1.222457
 H        -0.630966         0.764807        -0.317206
 H        -0.455172        -1.046626        -0.218562
 H         2.121219         2.058232        -0.539550
 H         1.880565         1.671830         1.266027
 H         4.414486        -0.858795        -0.002309
 H         2.222218        -0.944879         2.041913
 H         2.708803        -2.958489        -0.075076
 H         1.016663        -2.708274        -0.005852
 H         1.500145         0.359889        -2.301350
