19
Iteration:  1649charge 0 multiplicity 1
 C        -0.150636        -0.083378         0.343091
 C         1.354758        -0.044131         0.219944
 C         1.959424         1.325965         0.270335
 O         3.384489         0.975063         0.204555
 C         3.346281        -0.445821        -0.078277
 C         2.309796        -1.062382         0.906368
 C         1.924489        -2.165404        -0.075062
 C         2.109954        -0.871775        -0.954251
 O         2.141002        -0.715209        -2.345047
 H        -0.419397        -0.314808         1.493684
 H        -0.535239         0.894866         0.050335
 H        -0.449916        -0.995480        -0.259950
 H         1.611227         1.962395        -0.599393
 H         1.799571         1.971330         1.203369
 H         4.323166        -0.806881         0.068490
 H         2.287468        -1.045038         2.026483
 H         2.555806        -3.032300        -0.243727
 H         0.885524        -2.455894        -0.178901
 H         1.350005        -1.023163        -2.822861
