19
Iteration:  4428
 C        -0.202271        -0.146998         0.340818
 C         1.300395        -0.111453         0.188738
 C         1.928414         1.313901         0.248639
 O         3.306311         1.096668         0.124253
 C         3.332404        -0.409251        -0.043763
 C         2.314611        -1.018433         0.960934
 C         2.092785        -2.163810        -0.092374
 C         2.142785        -0.877897        -0.896832
 O         2.115592        -0.811112        -2.325612
 H        -0.528247        -1.130398         0.023492
 H        -0.415859        -0.105352         1.452443
 H        -0.728180         0.691517        -0.219095
 H         1.510259         1.889483        -0.609522
 H         1.840293         1.950544         1.229116
 H         4.388384        -0.729504        -0.261916
 H         2.517257        -1.362659         2.056415
 H         2.957542        -2.929191        -0.351090
 H         1.118808        -2.806855         0.042366
 H         1.736185         0.078023        -2.540450
