19
Iteration:  3547
 C        -0.137619        -0.323543         0.330753
 C         1.352054        -0.034735         0.175716
 C         1.967579         1.326714         0.383316
 O         3.336612         0.997381         0.083169
 C         3.338013        -0.380422         0.014344
 C         2.269939        -1.083758         0.918789
 C         2.032914        -2.100062        -0.137551
 C         2.151263        -0.795340        -0.944968
 O         2.002411        -0.670006        -2.311382
 H        -0.920224         0.293451         0.869112
 H        -0.551642        -0.523821        -0.665407
 H        -0.317834        -1.278206         0.941986
 H         1.722196         2.037568        -0.411215
 H         1.860686         1.782158         1.310173
 H         4.349186        -0.783925        -0.078035
 H         2.205741        -1.308338         1.989498
 H         2.837440        -2.841680        -0.219839
 H         0.968349        -2.593030        -0.232304
 H         2.783355        -0.174015        -2.663941
