19
Iteration:  3385charge 0 multiplicity 1
 C        -0.230837        -0.168857         0.345115
 C         1.307333        -0.076021         0.186011
 C         1.890397         1.252035         0.312410
 O         3.321655         1.009181         0.086423
 C         3.331453        -0.412557        -0.012186
 C         2.300332        -1.053467         0.977779
 C         2.141208        -2.154625        -0.030172
 C         2.092789        -0.838845        -0.893708
 O         2.091394        -0.666838        -2.400664
 H        -0.399058        -0.786664         1.235671
 H        -0.571633         0.902713         0.305945
 H        -0.772633        -0.646261        -0.445610
 H         1.508199         1.930885        -0.578740
 H         1.697807         1.824414         1.372602
 H         4.206462        -0.932691        -0.388805
 H         2.619062        -1.113528         2.034587
 H         2.964367        -2.747411        -0.303162
 H         1.221897        -2.847157        -0.120168
 H         2.973472        -0.482577        -2.632782
