19
Iteration:  2761charge 0 multiplicity 1
 C        -0.237340        -0.304235         0.297440
 C         1.269153        -0.041971         0.173957
 C         1.988602         1.348140         0.268720
 O         3.374659         1.015799         0.107179
 C         3.363589        -0.378049         0.008005
 C         2.295916        -1.081558         0.969417
 C         2.006190        -2.115747        -0.114322
 C         2.208188        -0.807154        -0.899069
 O         2.116363        -0.664972        -2.324723
 H        -0.651375        -0.111294         1.306103
 H        -0.948772         0.167579        -0.398908
 H        -0.495864        -1.426963         0.198769
 H         1.673365         2.205127        -0.402537
 H         1.882248         1.763797         1.415864
 H         4.431543        -0.707325        -0.120504
 H         2.530451        -1.277261         2.003303
 H         2.757674        -2.897295        -0.242481
 H         0.998243        -2.377525        -0.088575
 H         1.298433        -1.226920        -2.568405
