19
Iteration:    42charge 0 multiplicity 1
 C        -0.105729         0.122581         0.086677
 C         1.386258        -0.026064         0.155289
 C         2.172254         1.302188         0.235442
 O         3.503524         0.777667         0.076743
 C         3.335091        -0.597951         0.064107
 C         2.347197        -1.114151         1.016784
 C         1.851056        -2.166144        -0.043093
 C         2.050585        -0.862658        -0.854472
 O         1.884385        -0.551485        -2.219874
 H        -0.481500         0.915883         0.788920
 H        -0.364389         0.431714        -0.926622
 H        -0.768099        -0.844330         0.404790
 H         1.987651         2.009772        -0.582086
 H         2.117276         1.743219         1.283502
 H         4.259104        -1.078919        -0.149921
 H         2.435140        -1.202707         2.155029
 H         2.504557        -3.066216        -0.221764
 H         0.825522        -2.634724         0.107858
 H         0.900420        -0.640525        -2.420926
