19
Iteration:  3745
 C        -0.199319        -0.311375         0.456518
 C         1.316690        -0.140466         0.223884
 C         1.926874         1.248775         0.317321
 O         3.353449         1.002881         0.191752
 C         3.340870        -0.413917        -0.026163
 C         2.304793        -1.051939         0.879207
 C         1.966524        -2.161702        -0.313348
 C         2.153479        -0.764498        -0.945965
 O         2.152281        -0.539222        -2.292408
 H        -0.250167        -1.075249         1.242359
 H        -0.831355         0.454932         0.733921
 H        -0.814508        -0.688809        -0.367529
 H         1.399328         1.816867        -0.569085
 H         1.775136         1.614856         1.378466
 H         4.260598        -0.846681        -0.326270
 H         2.431979        -1.133490         2.010905
 H         2.644380        -2.889253        -0.660203
 H         0.967645        -2.677965        -0.341837
 H         2.664995         0.302251        -2.510638
