19
Iteration:   195
 C        -0.080968         0.046468         0.100303
 C         1.377297        -0.000434         0.175446
 C         2.222119         1.295359         0.200718
 O         3.513099         0.813148         0.229747
 C         3.293472        -0.562270        -0.088089
 C         2.333482        -1.073228         0.987091
 C         1.792832        -2.093957         0.003781
 C         2.107677        -0.873248        -0.903473
 O         1.780265        -0.617993        -2.157441
 H        -0.497896         0.422572         1.034835
 H        -0.387205         0.618397        -0.709136
 H        -0.514256        -0.986759        -0.110320
 H         2.060515         1.821042        -0.849216
 H         1.995437         1.950548         1.083659
 H         4.171282        -1.070164        -0.132664
 H         2.637742        -1.138604         2.007128
 H         2.178327        -3.037548        -0.425187
 H         0.733575        -2.348923         0.011608
 H         2.429285        -1.068776        -2.687680
