19
Iteration:  1111charge 0 multiplicity 1
 C        -0.178262         0.147915         0.350723
 C         1.365653        -0.026409         0.125366
 C         2.045394         1.274794         0.383658
 O         3.468781         0.941404         0.255723
 C         3.414860        -0.508288         0.022857
 C         2.312405        -1.121740         0.902619
 C         1.892547        -2.170329        -0.222149
 C         2.127448        -0.910184        -0.995576
 O         1.946949        -0.696269        -2.326468
 H        -0.580915         0.584138        -0.643150
 H        -0.540206        -0.792990         0.397175
 H        -0.505406         0.900964         1.144868
 H         1.707801         2.015593        -0.318681
 H         1.727515         1.618232         1.413098
 H         4.368816        -1.024994        -0.235716
 H         2.426257        -1.312796         1.962371
 H         2.506607        -3.045015        -0.308973
 H         0.822070        -2.390567        -0.216840
 H         1.716782        -1.553379        -2.793385
