19
Iteration:  3191
 C        -0.209208        -0.416127         0.242488
 C         1.355920        -0.072711         0.219127
 C         1.977567         1.341404         0.235868
 O         3.399769         1.003657         0.112294
 C         3.352091        -0.371782         0.070005
 C         2.293734        -0.978383         0.978896
 C         1.992450        -2.079751        -0.206023
 C         2.219401        -0.818485        -0.910615
 O         1.926006        -0.674540        -2.243735
 H        -0.592330        -0.011748         1.095900
 H        -0.754010         0.018559        -0.626775
 H        -0.332135        -1.388889         0.231659
 H         1.723362         1.967963        -0.561348
 H         1.872360         1.776879         1.313952
 H         4.411968        -0.680406         0.071621
 H         2.400501        -1.430492         2.035559
 H         2.665248        -2.889457        -0.238386
 H         0.967134        -2.438064        -0.088841
 H         2.692342        -0.285955        -2.610870
