19
Iteration:   700charge 0 multiplicity 1
 C        -0.081104         0.045098         0.137921
 C         1.376009         0.028996         0.281838
 C         2.141095         1.309181         0.380494
 O         3.434125         0.939088         0.179072
 C         3.415577        -0.426379        -0.084354
 C         2.325610        -1.177845         0.936996
 C         1.842870        -2.185012        -0.133708
 C         2.023340        -0.824288        -0.870225
 O         1.923029        -0.830349        -2.244178
 H        -0.598638         0.731611         0.778024
 H        -0.251387         0.322114        -0.974917
 H        -0.586373        -0.821915         0.356479
 H         1.904145         2.067278        -0.403186
 H         2.037002         1.915072         1.399735
 H         4.284481        -0.940980        -0.536196
 H         2.582339        -1.293515         1.962920
 H         2.626378        -2.869779        -0.537381
 H         0.792873        -2.563860        -0.144072
 H         1.033392        -0.382653        -2.560864
