19
Iteration:  1710
 C        -0.191861        -0.021056         0.376380
 C         1.323704        -0.071491         0.224098
 C         1.973061         1.312824         0.332452
 O         3.310437         1.014147         0.065367
 C         3.350674        -0.491436        -0.045955
 C         2.305955        -1.129200         0.967677
 C         1.957011        -2.146285        -0.126738
 C         2.143600        -0.872302        -0.929471
 O         2.207910        -0.767753        -2.353003
 H        -0.459254         0.635292         1.189399
 H        -0.763426         0.313202        -0.543192
 H        -0.670550        -0.989903         0.553040
 H         1.527492         2.090719        -0.337225
 H         1.847264         1.675149         1.387072
 H         4.360610        -0.892496         0.004341
 H         2.334178        -1.128759         2.019116
 H         2.635674        -3.001631        -0.365542
 H         0.901590        -2.481540        -0.223721
 H         1.711802         0.006840        -2.591684
