19
Iteration:  1638
 C        -0.051403        -0.150682         0.285889
 C         1.407305        -0.029109         0.241228
 C         2.026884         1.336213         0.217714
 O         3.349801         1.004550         0.215760
 C         3.347326        -0.470647        -0.051199
 C         2.241461        -1.083999         1.005429
 C         1.874690        -2.167790        -0.073205
 C         2.189322        -0.842363        -0.957554
 O         2.047487        -0.648597        -2.340553
 H        -0.574757        -0.370603         1.355009
 H        -0.636163         0.696565        -0.085374
 H        -0.546674        -0.884084        -0.441491
 H         1.710132         1.830309        -0.798297
 H         1.710479         1.988897         1.102833
 H         4.326098        -0.793098        -0.297606
 H         2.441821        -1.330426         2.077545
 H         2.575185        -2.973285        -0.285147
 H         0.852866        -2.519411         0.044666
 H         1.421234        -1.283012        -2.614616
