19
Iteration:  2082charge 0 multiplicity 1
 C        -0.218700        -0.277679         0.343084
 C         1.291401        -0.075546         0.266361
 C         1.993326         1.371439         0.328526
 O         3.370110         1.006750         0.079510
 C         3.339588        -0.395227        -0.096974
 C         2.309978        -1.026586         0.965690
 C         1.989453        -2.156926        -0.092094
 C         2.119793        -0.855103        -0.933395
 O         2.175059        -0.672302        -2.332519
 H        -0.726363        -0.270485         1.286771
 H        -0.688287         0.575483        -0.224669
 H        -0.609870        -1.114859        -0.265602
 H         1.766160         2.167668        -0.390882
 H         1.799253         1.892516         1.335217
 H         4.341980        -0.881444        -0.031031
 H         2.542192        -1.237282         2.123711
 H         2.738647        -2.904254        -0.340034
 H         0.968919        -2.673352        -0.062239
 H         1.311509        -0.764367        -2.683792
