19
Iteration:  2507charge 0 multiplicity 1
 C        -0.188784        -0.205601         0.233770
 C         1.325265        -0.089342         0.238122
 C         1.997947         1.288098         0.208638
 O         3.376576         0.991738         0.085804
 C         3.326485        -0.390330        -0.013777
 C         2.296978        -1.025488         1.025309
 C         2.079332        -2.176580        -0.087375
 C         2.113566        -0.866263        -0.899232
 O         1.980350        -0.609949        -2.274471
 H        -0.758678        -0.416314         1.272278
 H        -0.684062         0.618295        -0.241575
 H        -0.437280        -1.130519        -0.266649
 H         1.600237         1.773107        -0.672959
 H         1.749255         1.800205         1.192275
 H         4.214449        -0.881232        -0.143782
 H         2.311594        -1.111934         2.114786
 H         2.918142        -2.887576        -0.140310
 H         1.198138        -2.719166         0.132201
 H         2.819547        -0.412369        -2.617608
