19
Iteration:  2235charge 0 multiplicity 1
 C        -0.257921        -0.154473         0.354650
 C         1.315352        -0.101328         0.250247
 C         1.933987         1.318869         0.299974
 O         3.407700         1.039404         0.058730
 C         3.294213        -0.403575        -0.036599
 C         2.338370        -1.171769         0.964653
 C         2.026600        -2.153207        -0.069190
 C         2.114120        -0.850226        -0.918698
 O         2.149698        -0.719804        -2.369730
 H        -0.604748         0.279215         1.350757
 H        -0.738478         0.673130        -0.279005
 H        -0.802079        -1.100806         0.155768
 H         1.629003         1.904301        -0.644764
 H         1.734508         1.862462         1.221424
 H         4.267343        -0.782284        -0.251449
 H         2.347771        -1.322165         2.120957
 H         2.785840        -2.956664        -0.261613
 H         0.967270        -2.586315         0.083522
 H         2.379953         0.246981        -2.588350
