19
Iteration:  1197charge 0 multiplicity 1
 C        -0.126537        -0.016715         0.307400
 C         1.419786        -0.028395         0.188128
 C         2.067207         1.302558         0.271450
 O         3.454775         0.879856         0.072934
 C         3.312091        -0.535018        -0.004022
 C         2.233564        -1.055224         0.955374
 C         1.762155        -2.191940        -0.100023
 C         2.130781        -0.893858        -0.913563
 O         2.072275        -0.640912        -2.284887
 H        -0.578320         0.994324         0.279114
 H        -0.664957        -0.507395        -0.446897
 H        -0.420589        -0.690411         1.180818
 H         1.651783         1.865986        -0.562423
 H         2.115395         1.848017         1.196198
 H         4.333757        -0.967575        -0.131826
 H         2.590507        -1.085870         1.973319
 H         2.480783        -2.957476        -0.231384
 H         0.765402        -2.494314         0.185116
 H         1.765319         0.335607        -2.435267
