19
Iteration:  2980charge 0 multiplicity 1
 C        -0.160073        -0.332005         0.190647
 C         1.296926        -0.052368         0.234909
 C         1.994018         1.290032         0.362847
 O         3.414889         1.052029         0.125886
 C         3.385177        -0.394589         0.038585
 C         2.327803        -0.960242         0.975977
 C         1.994513        -2.046474        -0.161791
 C         2.199452        -0.814998        -0.922369
 O         1.893413        -0.786767        -2.304532
 H        -0.807483        -0.126997         1.058497
 H        -0.681325         0.243246        -0.617986
 H        -0.319893        -1.393784        -0.088904
 H         1.588496         2.074879        -0.379202
 H         1.732152         1.638147         1.472472
 H         4.334013        -0.857544         0.018989
 H         2.445107        -1.338827         1.928654
 H         2.739034        -2.861996        -0.289472
 H         1.089773        -2.573864        -0.058378
 H         2.546274        -0.166437        -2.734132
