19
Iteration:  3320charge 0 multiplicity 1
 C        -0.165550        -0.341352         0.150158
 C         1.314252        -0.049879         0.224187
 C         1.975961         1.352041         0.302254
 O         3.399022         1.046420         0.213761
 C         3.398234        -0.411146        -0.036911
 C         2.331138        -0.990592         0.941755
 C         2.015038        -2.179848        -0.133710
 C         2.168011        -0.797908        -0.881175
 O         1.874975        -0.731261        -2.253744
 H        -0.476156        -0.593458         1.208195
 H        -0.843806         0.540382        -0.301999
 H        -0.403214        -1.249815        -0.377646
 H         1.710273         2.017870        -0.575325
 H         1.761048         1.944265         1.105687
 H         4.449769        -0.691517        -0.242603
 H         2.639763        -1.102161         2.006528
 H         2.821943        -2.899237        -0.256622
 H         0.997542        -2.766642        -0.038849
 H         2.562248        -0.067481        -2.603674
