19
Iteration:  1087
 C        -0.140043         0.014465         0.108515
 C         1.356731        -0.046439         0.152676
 C         2.204475         1.323998         0.507662
 O         3.536324         0.863237         0.222585
 C         3.363432        -0.536124        -0.017957
 C         2.150707        -1.073190         0.931531
 C         2.069457        -2.160757        -0.126870
 C         2.044187        -0.782803        -0.939346
 O         1.730729        -0.643170        -2.321051
 H        -0.511920         0.024349        -0.914496
 H        -0.548451        -0.849786         0.607672
 H        -0.455824         1.008824         0.564657
 H         1.979413         2.034304        -0.273061
 H         2.017756         1.719486         1.520529
 H         4.190912        -1.193283        -0.053619
 H         2.362866        -1.169424         1.994912
 H         2.923247        -2.785847        -0.190782
 H         1.128787        -2.640674        -0.303615
 H         2.101495        -1.387075        -2.691870
