19
Iteration:  2712charge 0 multiplicity 1
 C        -0.266770        -0.102850         0.464021
 C         1.216590        -0.103237         0.104928
 C         1.880339         1.241491         0.350831
 O         3.317813         1.063517         0.093118
 C         3.317840        -0.389524        -0.038461
 C         2.347866        -1.077937         0.911977
 C         2.072810        -2.224338        -0.105491
 C         2.235307        -0.870356        -0.989030
 O         2.272757        -0.692544        -2.333969
 H        -0.322442         0.226895         1.573363
 H        -0.953019         0.609578        -0.097412
 H        -0.829922        -1.003253         0.434022
 H         1.533251         1.829169        -0.544282
 H         1.685376         1.823622         1.242704
 H         4.312626        -0.728174        -0.050794
 H         2.370015        -1.062687         2.026477
 H         2.820462        -3.058537        -0.256544
 H         0.937900        -2.561677        -0.127893
 H         1.417751        -0.540931        -2.663026
