19
Iteration:  4743
 C        -0.154774        -0.081788         0.130955
 C         1.315447        -0.138994         0.164635
 C         1.906334         1.339444         0.183629
 O         3.326543         1.067968         0.037856
 C         3.331956        -0.320983        -0.025806
 C         2.369586        -0.939859         1.006741
 C         2.191709        -2.202700         0.110584
 C         2.179609        -0.918352        -0.882132
 O         1.917040        -0.965551        -2.198857
 H        -0.625990        -1.100760         0.244314
 H        -0.518449         0.665553         0.850182
 H        -0.393991         0.301067        -0.860432
 H         1.477789         2.146653        -0.528990
 H         1.621237         1.529181         1.216846
 H         4.328967        -0.584836        -0.134282
 H         2.428771        -0.898426         2.124544
 H         3.055731        -2.742892        -0.049961
 H         1.225935        -2.608440         0.144746
 H         1.877413        -0.050341        -2.616637
