19
Iteration:   904charge 0 multiplicity 1
 C        -0.172357        -0.076025         0.073476
 C         1.365321        -0.037119         0.133384
 C         2.159287         1.291890         0.252023
 O         3.576147         0.910544         0.121695
 C         3.413928        -0.515927         0.112952
 C         2.224088        -1.109752         0.977732
 C         2.007332        -2.226932        -0.053294
 C         2.069544        -0.850458        -0.931472
 O         1.740605        -0.583385        -2.215034
 H        -0.622973         0.975006         0.316807
 H        -0.515664        -0.317637        -0.837510
 H        -0.722832        -0.635353         0.882977
 H         1.852418         2.120156        -0.464379
 H         1.955264         1.591041         1.315277
 H         4.277550        -1.150844         0.096388
 H         2.276466        -1.181734         2.079063
 H         2.834434        -2.888724        -0.258358
 H         1.046865        -2.774291         0.002448
 H         1.801040         0.462912        -2.341147
