19
Iteration:  2415charge 0 multiplicity 1
 C        -0.110033        -0.251941         0.390056
 C         1.330366        -0.065015         0.158105
 C         1.883296         1.331865         0.315869
 O         3.435233         1.060498         0.206116
 C         3.341290        -0.455144         0.047524
 C         2.282466        -0.996567         0.906899
 C         1.952650        -2.078601        -0.226352
 C         2.140960        -0.809081        -0.968919
 O         2.054829        -0.853248        -2.354751
 H        -0.584902         0.550056         1.021328
 H        -0.552313        -0.211152        -0.659851
 H        -0.433458        -1.153568         1.024041
 H         1.775490         2.086742        -0.476268
 H         1.648685         1.607385         1.388168
 H         4.512328        -0.774868        -0.030249
 H         2.234552        -0.957611         2.018284
 H         2.700423        -2.867729        -0.257142
 H         0.924702        -2.494874        -0.049738
 H         2.139154        -0.061785        -3.004957
