19
Iteration:  2380charge 0 multiplicity 1
 C        -0.264943        -0.156611         0.360750
 C         1.257202        -0.096124         0.243787
 C         1.951133         1.336864         0.226064
 O         3.406994         1.011987         0.101095
 C         3.328435        -0.435126        -0.023761
 C         2.356893        -1.062402         0.942422
 C         2.059137        -2.223354        -0.156964
 C         2.099126        -0.857663        -0.890450
 O         2.097935        -0.665208        -2.274378
 H        -0.553397         0.745988         0.786459
 H        -0.756542        -0.203510        -0.682335
 H        -0.787079        -1.034930         0.875024
 H         1.494711         1.978511        -0.566253
 H         1.613839         1.771372         1.156817
 H         4.338333        -0.916264        -0.228414
 H         2.537282        -1.228272         1.985023
 H         2.809744        -3.022719        -0.493217
 H         1.102660        -2.654435         0.098576
 H         2.734419         0.096983        -2.504219
