19
Iteration:  1059
 C        -0.183605        -0.091300        -0.001773
 C         1.352031        -0.046039         0.197391
 C         2.194080         1.357873         0.398291
 O         3.514271         0.865353         0.175328
 C         3.455102        -0.514889        -0.025728
 C         2.320380        -1.139106         0.931028
 C         1.863316        -2.174037        -0.091141
 C         2.081157        -0.814478        -0.868137
 O         1.722102        -0.551725        -2.179154
 H        -0.347775        -0.401697        -1.096814
 H        -0.700918        -0.806705         0.677987
 H        -0.505999         0.912593         0.234394
 H         2.037369         2.081750        -0.446198
 H         2.067478         1.762953         1.433911
 H         4.401869        -1.138422        -0.024846
 H         2.510666        -1.334980         1.983555
 H         2.506481        -3.060057        -0.403816
 H         0.781627        -2.401736        -0.038883
 H         2.525127        -0.417963        -2.652262
