19
Iteration:   782
 C        -0.291054         0.078435         0.483676
 C         1.306588        -0.000207         0.331570
 C         2.027219         1.300037         0.226808
 O         3.422805         0.897610         0.104659
 C         3.342364        -0.489469        -0.125761
 C         2.303763        -1.110405         0.906057
 C         1.834552        -2.074687        -0.162002
 C         2.160870        -0.865606        -0.942050
 O         2.159242        -0.796733        -2.291280
 H        -0.597101        -0.414292         1.498615
 H        -0.661709         1.025586         0.397312
 H        -0.726223        -0.715339        -0.305550
 H         1.628479         1.831944        -0.682408
 H         2.042360         1.885273         1.132321
 H         4.325498        -1.059935        -0.412995
 H         2.470345        -1.251766         2.066635
 H         2.286855        -2.997207        -0.427370
 H         0.759362        -2.351948        -0.171811
 H         3.005532        -0.478567        -2.651558
