19
Iteration:  1307charge 0 multiplicity 1
 C        -0.143847        -0.034464         0.388501
 C         1.322332         0.014215         0.319782
 C         2.071752         1.338969         0.206004
 O         3.477086         0.887443         0.044140
 C         3.286982        -0.502047        -0.018434
 C         2.268246        -1.070209         0.944143
 C         1.840460        -2.156893        -0.133790
 C         2.022150        -0.844331        -0.860139
 O         2.200093        -0.650117        -2.313661
 H        -0.431201        -0.089172         1.508234
 H        -0.522520         0.793923        -0.174813
 H        -0.489283        -1.059865        -0.120187
 H         1.483891         1.708495        -0.710104
 H         1.911083         2.031879         1.054574
 H         4.320386        -1.022379        -0.265544
 H         2.199914        -1.352751         2.025618
 H         2.491623        -2.973594        -0.114887
 H         0.822690        -2.536386        -0.178908
 H         1.430095        -1.085796        -2.787433
