19
Iteration:  3871charge 0 multiplicity 1
 C        -0.136904        -0.445923         0.119827
 C         1.314108        -0.085261         0.313934
 C         2.034182         1.324985         0.456067
 O         3.411785         0.973436         0.308490
 C         3.378738        -0.457375         0.023212
 C         2.388867        -1.076489         0.863677
 C         2.025116        -2.146044        -0.339449
 C         2.145500        -0.761900        -0.951913
 O         1.824256        -0.498972        -2.301936
 H        -0.800453         0.345204         0.396409
 H        -0.295801        -0.561853        -0.943235
 H        -0.563625        -1.205983         0.740040
 H         1.628724         2.258767        -0.260912
 H         1.805512         1.677567         1.452006
 H         4.296671        -0.862369        -0.289300
 H         2.551026        -1.365153         1.907666
 H         2.875607        -2.858642        -0.433744
 H         1.030974        -2.536357        -0.049762
 H         1.952431         0.444940        -2.366566
