19
Iteration:  2862charge 0 multiplicity 1
 C        -0.163483        -0.337864         0.321542
 C         1.333169        -0.031924         0.158120
 C         1.986697         1.317560         0.366130
 O         3.363870         1.004543         0.103560
 C         3.329520        -0.413581        -0.046284
 C         2.288581        -0.970621         0.913111
 C         1.953946        -2.188339        -0.005411
 C         2.180477        -0.839316        -0.957546
 O         2.028318        -0.641136        -2.374889
 H        -0.706665         0.072013         1.138514
 H        -0.839974         0.031584        -0.533011
 H        -0.330415        -1.401069         0.375085
 H         1.719331         2.097662        -0.368593
 H         1.836092         1.783788         1.479133
 H         4.289629        -0.851090         0.036626
 H         2.468624        -1.059387         1.983619
 H         2.669140        -2.961900        -0.079973
 H         0.952416        -2.564598         0.058796
 H         2.812528        -0.239635        -2.676137
