19
Iteration:  1842charge 0 multiplicity 1
 C        -0.296790        -0.126883         0.439837
 C         1.242894         0.024530         0.160009
 C         2.016717         1.368535         0.364468
 O         3.376111         1.018846         0.077595
 C         3.348226        -0.454341         0.018142
 C         2.198772        -1.033408         0.864608
 C         2.034613        -2.181955        -0.173974
 C         2.193407        -0.849528        -0.939461
 O         2.230206        -0.803108        -2.355664
 H        -0.496952        -0.012331         1.526116
 H        -0.904315         0.705766        -0.101488
 H        -0.756608        -1.174166         0.226242
 H         1.719876         2.185813        -0.274492
 H         2.010812         1.566071         1.407266
 H         4.338220        -0.885971        -0.052598
 H         2.363697        -1.417265         1.944003
 H         2.858069        -2.901266         0.013059
 H         0.995130        -2.571597        -0.261423
 H         1.382258        -0.758407        -2.714615
