19
Iteration:  2079
 C        -0.253385        -0.273533         0.353899
 C         1.285200        -0.077048         0.272982
 C         1.996364         1.369130         0.330870
 O         3.366982         0.994459         0.060432
 C         3.342895        -0.399059        -0.079921
 C         2.318769        -1.020414         0.984758
 C         1.976993        -2.145791        -0.103061
 C         2.149482        -0.843296        -0.939263
 O         2.191311        -0.673245        -2.325820
 H        -0.780304        -0.281888         1.360953
 H        -0.694230         0.511027        -0.201294
 H        -0.555273        -1.060555        -0.264881
 H         1.670843         2.058429        -0.427820
 H         1.804265         1.878034         1.227009
 H         4.373216        -0.883915        -0.090093
 H         2.560310        -1.243165         2.015179
 H         2.743331        -2.938172        -0.371471
 H         0.963081        -2.644098        -0.133733
 H         1.252097        -0.701269        -2.635424
