19
Iteration:   907charge 0 multiplicity 1
 C        -0.180461        -0.085404         0.106253
 C         1.374122        -0.006352         0.131869
 C         2.168440         1.299023         0.286119
 O         3.550400         0.891841         0.115745
 C         3.403019        -0.531726         0.102455
 C         2.191826        -1.088563         0.992269
 C         2.030982        -2.235227        -0.073634
 C         2.065389        -0.841130        -0.928902
 O         1.752603        -0.590770        -2.230019
 H        -0.532941         0.990616         0.287816
 H        -0.447774        -0.412088        -0.943457
 H        -0.678863        -0.549279         0.884926
 H         1.898090         2.112840        -0.435502
 H         1.941444         1.709073         1.255868
 H         4.279602        -1.126412         0.071061
 H         2.295619        -1.250530         2.007226
 H         2.913546        -2.896946        -0.297450
 H         1.079709        -2.731808         0.090709
 H         1.817129         0.352790        -2.412527
