19
Iteration:  4599charge 0 multiplicity 1
 C        -0.172395        -0.280312         0.331473
 C         1.335681        -0.035619         0.115862
 C         1.965291         1.320796         0.205207
 O         3.336838         1.079938         0.077428
 C         3.372650        -0.374495        -0.038268
 C         2.327238        -0.958873         0.981424
 C         2.027330        -2.097766         0.013652
 C         2.177432        -0.878331        -0.909915
 O         1.987243        -0.766722        -2.279306
 H        -0.786085         0.646821         0.795779
 H        -0.625358        -0.522482        -0.686731
 H        -0.342139        -1.300673         0.768371
 H         1.486566         1.978237        -0.612221
 H         1.755267         1.783212         1.170548
 H         4.281052        -0.855597        -0.130672
 H         2.328662        -1.057420         2.131033
 H         2.800309        -2.896471         0.110251
 H         1.048155        -2.531008         0.010144
 H         2.523943        -1.441003        -2.646396
