19
Iteration:  2978
 C        -0.177446        -0.339834         0.192026
 C         1.306850        -0.044565         0.261548
 C         2.025353         1.277490         0.342146
 O         3.413361         1.064217         0.135501
 C         3.370925        -0.393181         0.045876
 C         2.313974        -0.965005         0.954849
 C         1.986731        -2.030986        -0.167601
 C         2.205909        -0.804560        -0.915984
 O         1.901952        -0.798879        -2.321848
 H        -0.793683        -0.123421         1.089718
 H        -0.628183         0.238569        -0.518811
 H        -0.301520        -1.436732        -0.087231
 H         1.541631         2.046679        -0.325416
 H         1.708099         1.699660         1.505897
 H         4.313729        -0.866273         0.018764
 H         2.406504        -1.343016         1.878299
 H         2.785583        -2.895495        -0.247285
 H         1.110629        -2.595137        -0.054491
 H         2.477851        -0.208389        -2.755827
