19
Iteration:  1845
 C        -0.296819        -0.150663         0.468276
 C         1.251709         0.039668         0.135817
 C         2.026881         1.343757         0.351030
 O         3.385406         1.007346         0.073840
 C         3.316025        -0.433936         0.044876
 C         2.197940        -1.021614         0.878877
 C         2.016170        -2.184410        -0.181538
 C         2.195726        -0.826253        -0.941100
 O         2.238944        -0.809232        -2.373709
 H        -0.289428         0.018066         1.526965
 H        -0.854997         0.679623        -0.070829
 H        -0.744904        -1.212398         0.163326
 H         1.696118         2.247089        -0.278386
 H         1.940565         1.641464         1.463008
 H         4.319903        -0.912549        -0.031417
 H         2.299555        -1.411794         1.967231
 H         2.895243        -2.901786         0.078647
 H         0.990211        -2.719898        -0.255094
 H         1.331643        -0.644956        -2.774745
