19
Iteration:  4162
 C        -0.190853        -0.156978         0.316352
 C         1.321684        -0.095404         0.200294
 C         1.849755         1.266453         0.333371
 O         3.283962         1.004896         0.168771
 C         3.306338        -0.439582        -0.019440
 C         2.413604        -1.132155         0.914036
 C         2.184115        -2.190948        -0.194671
 C         2.145446        -0.845654        -0.897672
 O         2.024821        -0.602036        -2.305078
 H        -0.808878         0.077539        -0.623827
 H        -0.665206        -1.159247         0.618504
 H        -0.479249         0.610653         1.103903
 H         1.420869         1.810640        -0.527989
 H         1.624301         1.833456         1.179804
 H         4.399340        -0.740295        -0.112849
 H         2.546671        -1.240258         1.966009
 H         2.950911        -2.969736        -0.526584
 H         1.195378        -2.615964        -0.195950
 H         2.566444         0.225604        -2.449726
