19
Iteration:   348charge 0 multiplicity 1
 C        -0.122329         0.227508         0.249709
 C         1.333444        -0.038868         0.184469
 C         2.138501         1.272426         0.199038
 O         3.539823         0.849983         0.217076
 C         3.313790        -0.597827        -0.094050
 C         2.247026        -1.093949         0.962083
 C         1.844714        -2.156822         0.010057
 C         2.066184        -0.888626        -0.897045
 O         1.990684        -0.675825        -2.302356
 H        -0.504443         0.338788         1.294372
 H        -0.252223         1.143576        -0.314886
 H        -0.764104        -0.574939        -0.256064
 H         1.934569         1.804226        -0.697054
 H         1.889371         1.863899         1.024363
 H         4.229824        -1.048879        -0.226182
 H         2.495282        -1.129525         1.982432
 H         2.589826        -3.035823        -0.060938
 H         0.784772        -2.462259        -0.022258
 H         1.315794        -1.227045        -2.649540
