19
Iteration:  1657charge 0 multiplicity 1
 C        -0.211399        -0.069766         0.399525
 C         1.270143        -0.062733         0.172412
 C         1.954923         1.327068         0.304158
 O         3.417036         0.957995         0.166686
 C         3.345499        -0.408043        -0.012062
 C         2.315218        -1.030506         0.863050
 C         1.941227        -2.144046        -0.136428
 C         2.103456        -0.892783        -0.937624
 O         2.204247        -0.750343        -2.347516
 H        -0.384671        -0.176420         1.383773
 H        -0.602506         0.894003         0.060001
 H        -0.776712        -0.899038        -0.098212
 H         1.733382         1.943994        -0.477378
 H         1.845327         1.709655         1.286804
 H         4.290901        -0.914265        -0.187535
 H         2.445886        -1.028259         1.932185
 H         2.734971        -2.924862        -0.144721
 H         0.904499        -2.537256        -0.001810
 H         1.305249        -0.871781        -2.624142
