19
Iteration:  2321charge 0 multiplicity 1
 C        -0.173266        -0.233813         0.180201
 C         1.375818        -0.056214         0.206896
 C         1.981040         1.246201         0.295003
 O         3.343880         0.998065         0.110010
 C         3.378460        -0.390963        -0.022984
 C         2.354273        -1.053998         0.960680
 C         1.974573        -2.099058        -0.078855
 C         2.144812        -0.772304        -0.881273
 O         1.952601        -0.735714        -2.256576
 H        -0.543265        -0.002727         1.226135
 H        -0.517800         0.477393        -0.522498
 H        -0.550460        -1.201483         0.055999
 H         1.672987         1.836749        -0.580637
 H         1.729954         1.645529         1.267247
 H         4.337398        -0.724579        -0.303137
 H         2.561089        -1.218733         2.067870
 H         2.705616        -2.932084        -0.160817
 H         0.922226        -2.504234         0.019327
 H         2.561152        -0.102891        -2.563494
