19
Iteration:  1565
 C        -0.150842        -0.032507         0.186698
 C         1.320855        -0.076879         0.235961
 C         2.013115         1.272487         0.323249
 O         3.367504         0.988299         0.126288
 C         3.379239        -0.425495        -0.011434
 C         2.400170        -1.043492         0.956311
 C         1.925514        -2.201888        -0.134214
 C         2.134465        -0.912848        -0.891985
 O         1.930128        -0.711442        -2.265741
 H        -0.563484         0.454940         1.097884
 H        -0.474464         0.528236        -0.668007
 H        -0.751086        -0.909698         0.189763
 H         1.643732         1.933539        -0.456232
 H         1.977007         1.510320         1.382442
 H         4.401461        -0.811486        -0.277817
 H         2.506179        -1.115099         2.075851
 H         2.755630        -2.913541        -0.065778
 H         0.885484        -2.591219        -0.126664
 H         2.637385        -0.322702        -2.816940
