19
Iteration:  1040
 C        -0.065502        -0.027767         0.141071
 C         1.446240        -0.079611         0.281135
 C         2.034854         1.228108         0.273848
 O         3.479836         0.935820         0.149860
 C         3.354928        -0.558790        -0.037111
 C         2.320650        -1.166304         0.997771
 C         1.727071        -2.160096        -0.092372
 C         2.152711        -0.884872        -0.911951
 O         1.874374        -0.485096        -2.251208
 H        -0.343385        -0.382203        -0.855593
 H        -0.572136        -0.854733         0.884873
 H        -0.450299         0.948592         0.307070
 H         1.800348         1.879473        -0.648726
 H         1.973867         1.721926         1.239867
 H         4.339731        -1.080627        -0.267826
 H         2.425127        -1.335881         2.105317
 H         2.383847        -3.057022        -0.283861
 H         0.636253        -2.263139         0.036758
 H         2.540823         0.152371        -2.642934
