19
Iteration:  3186charge 0 multiplicity 1
 C        -0.173463        -0.368537         0.198775
 C         1.340315        -0.091609         0.240608
 C         2.006701         1.334285         0.255384
 O         3.356150         0.987727         0.111589
 C         3.347653        -0.395490         0.056500
 C         2.339092        -0.994904         0.976328
 C         1.994116        -2.078897        -0.167709
 C         2.212738        -0.819726        -0.894923
 O         1.918308        -0.665053        -2.248091
 H        -0.739348         0.014196         1.196338
 H        -0.744362         0.127054        -0.585309
 H        -0.347131        -1.600431         0.133266
 H         1.544860         2.063048        -0.597209
 H         1.862026         1.914298         1.197048
 H         4.428218        -0.674172         0.158232
 H         2.379048        -1.247776         1.979625
 H         2.851243        -2.853125        -0.299963
 H         0.926579        -2.547975        -0.140292
 H         2.692667        -0.227542        -2.758581
