19
Iteration:  5000
 C        -0.363540        -0.100454         0.452030
 C         1.237923        -0.124226         0.209303
 C         1.905513         1.349962         0.134689
 O         3.277470         1.077206        -0.086222
 C         3.306166        -0.370473         0.012896
 C         2.339302        -1.029533         1.015381
 C         2.143906        -2.197693        -0.021126
 C         2.214112        -0.929899        -0.887933
 O         2.205233        -0.839757        -2.307227
 H        -0.443526        -0.188485         1.528656
 H        -0.671080         0.925538         0.076184
 H        -0.905127        -1.042006        -0.034989
 H         1.428931         1.976828        -0.734052
 H         1.663837         2.073631         0.965727
 H         4.286906        -0.973955        -0.141582
 H         2.478664        -1.060981         2.197584
 H         2.978520        -2.797732        -0.146560
 H         1.124777        -2.497323         0.108521
 H         2.987778        -0.244834        -2.440021
