19
Iteration:  1015
 C        -0.239197         0.002752         0.426470
 C         1.329980        -0.019888         0.230754
 C         2.097388         1.301749         0.233144
 O         3.469156         0.860773         0.089185
 C         3.270573        -0.599607         0.007790
 C         2.243361        -1.146821         0.927454
 C         1.883710        -2.171863        -0.218271
 C         2.106082        -0.858559        -0.936352
 O         2.104259        -0.565939        -2.252293
 H        -0.855540        -0.200417        -0.554183
 H        -0.577406        -0.737207         1.164036
 H        -0.498404         0.999937         0.847503
 H         1.833042         1.879159        -0.722466
 H         2.117781         1.929830         1.152715
 H         4.255648        -1.070771        -0.294983
 H         2.259189        -1.267189         1.985986
 H         2.705641        -2.923245        -0.311842
 H         0.839974        -2.527559        -0.188683
 H         2.500019         0.248742        -2.444427
