19
Iteration:  4957charge 0 multiplicity 1
 C        -0.189207        -0.207142         0.330264
 C         1.285935        -0.071462         0.132701
 C         1.862544         1.315100         0.066741
 O         3.359233         1.056076        -0.028784
 C         3.294112        -0.378186         0.017713
 C         2.352827        -0.960591         1.007887
 C         2.077053        -2.166948         0.063179
 C         2.177403        -0.938647        -0.839456
 O         2.084956        -0.793490        -2.258630
 H        -0.537590        -0.855103         1.124760
 H        -0.566954         0.842072         0.492080
 H        -0.753513        -0.858542        -0.423246
 H         1.481789         2.103015        -0.731033
 H         1.639635         1.907734         1.009569
 H         4.353451        -0.752505        -0.079683
 H         2.458318        -1.081809         2.188373
 H         2.889933        -2.935073         0.071269
 H         1.073063        -2.604351         0.180713
 H         2.581963         0.072491        -2.513380
