19
Iteration:   504
 C        -0.223868         0.047637         0.338840
 C         1.310345         0.013456         0.163244
 C         2.133937         1.401875         0.312390
 O         3.574579         0.811300         0.157498
 C         3.320175        -0.542268        -0.094122
 C         2.235065        -1.050571         0.935918
 C         1.818181        -2.131325        -0.002398
 C         2.130736        -0.887634        -0.919529
 O         2.057780        -0.771816        -2.399241
 H        -0.476626         0.425502         1.336653
 H        -0.759070         0.811877        -0.380285
 H        -0.623855        -0.905962         0.240079
 H         1.896019         2.036215        -0.518263
 H         2.005046         1.896823         1.204976
 H         4.396400        -1.051674        -0.179729
 H         2.361891        -1.063515         2.066434
 H         2.593598        -2.910672         0.065108
 H         0.744634        -2.519344        -0.054446
 H         1.116872        -0.426779        -2.653580
