19
Iteration:  1939
 C        -0.209616        -0.132262         0.087509
 C         1.323332        -0.103171         0.157951
 C         2.036923         1.307564         0.383161
 O         3.407549         1.010670         0.110718
 C         3.356409        -0.435155        -0.005504
 C         2.320802        -1.063469         0.950837
 C         2.141549        -2.268752        -0.021471
 C         2.136890        -0.842872        -0.907916
 O         1.820024        -0.586725        -2.257566
 H        -0.697333         0.489561         0.926977
 H        -0.629001         0.084513        -0.924080
 H        -0.602964        -1.133795         0.176134
 H         1.811535         2.278955        -0.194120
 H         1.783986         1.577422         1.484049
 H         4.366147        -0.816253        -0.248247
 H         2.309796        -1.190838         2.083862
 H         3.003198        -2.883432         0.080014
 H         1.208225        -2.826079         0.104069
 H         2.578045        -0.751469        -2.798219
