19
Iteration:  4582
 C        -0.103622        -0.375335         0.151251
 C         1.343047        -0.034367         0.167283
 C         1.920051         1.430679         0.221868
 O         3.388679         1.027432         0.144390
 C         3.342754        -0.380045        -0.034727
 C         2.367882        -0.926479         0.960235
 C         2.011888        -2.137092         0.035963
 C         2.150240        -0.852362        -0.874227
 O         1.888317        -0.791114        -2.250305
 H        -0.508306         0.501561         0.444643
 H        -0.528785        -0.757488        -0.764092
 H        -0.380288        -0.955287         1.016500
 H         1.835136         2.113285        -0.566970
 H         1.673253         1.910985         1.203055
 H         4.458759        -0.582632        -0.219222
 H         2.590347        -0.844077         2.001196
 H         2.812625        -2.749579        -0.338459
 H         0.940684        -2.463458         0.144939
 H         2.336108        -1.501777        -2.679274
