19
Iteration:  4359
 C        -0.158320        -0.378973         0.127048
 C         1.390109        -0.051807         0.251282
 C         1.984583         1.334660         0.367427
 O         3.348725         1.038375         0.169157
 C         3.330403        -0.392187        -0.075168
 C         2.356306        -1.003260         0.976873
 C         2.061103        -2.058844        -0.090230
 C         2.175236        -0.863135        -0.928423
 O         1.865589        -0.729434        -2.271867
 H        -0.575705        -0.854072         1.021201
 H        -0.714446         0.627686         0.168418
 H        -0.537107        -0.862942        -0.833907
 H         1.723778         1.982803        -0.470188
 H         1.770800         1.855351         1.405165
 H         4.330679        -0.746878        -0.175103
 H         2.466988        -1.118475         2.104963
 H         2.893845        -2.877396        -0.290267
 H         1.098462        -2.591321         0.023149
 H         2.490036        -0.245063        -2.775860
