19
Iteration:    75charge 0 multiplicity 1
 C        -0.160544         0.033024         0.290608
 C         1.360183        -0.001431         0.146555
 C         2.248841         1.360464         0.300499
 O         3.573650         0.803449         0.167956
 C         3.371160        -0.517666        -0.019086
 C         2.164880        -1.009062         1.013333
 C         1.813843        -2.149892        -0.096448
 C         2.052726        -0.860121        -0.939602
 O         1.910352        -0.803594        -2.363349
 H        -0.442354         0.810462         1.047874
 H        -0.541217         0.453982        -0.628411
 H        -0.720681        -0.999231         0.486611
 H         2.077019         2.287723        -0.342952
 H         2.032893         1.762292         1.344812
 H         4.227646        -1.062259        -0.308279
 H         2.140825        -1.123952         2.136143
 H         2.650584        -2.887048        -0.126979
 H         0.772180        -2.567171        -0.165040
 H         1.905361         0.197318        -2.593993
