19
Iteration:   669charge 0 multiplicity 1
 C        -0.217259         0.115178         0.372198
 C         1.348012        -0.043632         0.160060
 C         2.104317         1.219645         0.372170
 O         3.472722         0.904228         0.110167
 C         3.370244        -0.487844         0.018937
 C         2.236041        -1.071734         0.935168
 C         1.912023        -2.157257        -0.041738
 C         2.110496        -0.875774        -0.941419
 O         2.028827        -0.699571        -2.460315
 H        -0.469475         1.037877         0.801033
 H        -0.709986         0.194784        -0.631098
 H        -0.657517        -0.626221         0.974797
 H         1.859363         2.029990        -0.308521
 H         2.162505         1.557428         1.435019
 H         4.380240        -0.910064        -0.157721
 H         2.343489        -1.159219         1.968491
 H         2.638436        -2.981842        -0.170585
 H         0.934134        -2.603423        -0.028880
 H         1.190190        -1.050407        -2.715414
