19
Iteration:  3939
 C        -0.205368        -0.124111         0.585338
 C         1.290877        -0.191189         0.271147
 C         1.851508         1.210371         0.463646
 O         3.228125         1.000968         0.206450
 C         3.298656        -0.392965        -0.134822
 C         2.288727        -1.219826         0.899789
 C         2.164860        -2.197710        -0.379940
 C         2.170361        -0.757938        -1.018189
 O         2.214737        -0.531872        -2.389534
 H        -0.492868         0.555730         1.326413
 H        -0.620677         0.199611        -0.406258
 H        -0.910150        -0.900364         0.927466
 H         1.431478         2.059911        -0.393547
 H         1.658136         1.612478         1.446570
 H         4.222536        -0.791008        -0.381025
 H         2.463299        -1.841757         1.845862
 H         3.045605        -2.792410        -0.513135
 H         1.082721        -2.647187        -0.379711
 H         2.773572         0.268548        -2.712279
