19
Iteration:  1653
 C        -0.186643        -0.074466         0.362394
 C         1.305590        -0.055701         0.200351
 C         1.950554         1.326918         0.293065
 O         3.404761         0.963150         0.187496
 C         3.341379        -0.418508        -0.046026
 C         2.322584        -1.050902         0.871404
 C         1.933393        -2.151729        -0.106120
 C         2.095699        -0.891208        -0.938184
 O         2.177892        -0.731353        -2.347320
 H        -0.388247        -0.287525         1.486269
 H        -0.513582         0.937211         0.063128
 H        -0.546009        -0.950532        -0.135792
 H         1.637040         1.995423        -0.627268
 H         1.840098         1.850639         1.277998
 H         4.398899        -0.912220        -0.014121
 H         2.349352        -0.988954         1.968571
 H         2.654094        -2.983555        -0.164354
 H         0.876246        -2.471337        -0.118412
 H         1.283411        -0.962113        -2.748057
