19
Iteration:   878charge 0 multiplicity 1
 C        -0.093040        -0.060469         0.087501
 C         1.407060        -0.042541         0.251080
 C         2.096827         1.287275         0.239934
 O         3.439671         0.875967         0.174275
 C         3.411334        -0.524778        -0.044144
 C         2.303916        -1.078145         0.990012
 C         1.885863        -2.162538        -0.069538
 C         2.167696        -0.853116        -0.902381
 O         1.821001        -0.626061        -2.196518
 H        -0.545583         0.728509         0.625112
 H        -0.414615         0.290847        -1.011210
 H        -0.785430        -0.913961         0.365048
 H         1.835175         1.762151        -0.699506
 H         1.833087         1.929076         1.149183
 H         4.411291        -1.054583        -0.205256
 H         2.556512        -1.239981         2.116749
 H         2.396580        -3.120555        -0.294437
 H         0.803730        -2.422550         0.060019
 H         1.641258         0.395271        -2.295669
