19
Iteration:  3850charge 0 multiplicity 1
 C        -0.197540        -0.254472         0.093593
 C         1.373804        -0.147038         0.221817
 C         1.975613         1.198109         0.503636
 O         3.388866         1.009295         0.290683
 C         3.414410        -0.325326        -0.124701
 C         2.348837        -1.251802         0.895468
 C         2.106164        -2.184758        -0.275891
 C         2.190551        -0.714153        -0.866333
 O         1.811340        -0.543394        -2.232935
 H        -0.616325         0.677572         0.385490
 H        -0.476218        -0.275484        -0.961900
 H        -0.496649        -1.031992         0.845553
 H         1.504417         1.938035        -0.344616
 H         1.678876         1.707454         1.386156
 H         4.344274        -0.743129        -0.203722
 H         2.469321        -1.528399         1.970746
 H         2.997680        -2.736645        -0.578858
 H         1.036023        -2.615446        -0.232046
 H         1.866923         0.454647        -2.476792
