19
Iteration:  1406
 C        -0.122806        -0.061239         0.107835
 C         1.386643        -0.036236         0.201933
 C         2.108072         1.336613         0.388729
 O         3.491899         0.961976         0.213239
 C         3.380332        -0.445345        -0.016137
 C         2.303841        -1.038118         0.984332
 C         1.964654        -2.123769        -0.071036
 C         2.048886        -0.856640        -0.940596
 O         1.757697        -0.784428        -2.330882
 H        -0.324197         0.231548         1.102964
 H        -0.550026         0.495685        -0.647261
 H        -0.473505        -1.087560        -0.203831
 H         1.814772         2.053011        -0.388648
 H         1.894837         1.576874         1.411712
 H         4.295431        -1.103014        -0.320463
 H         2.426053        -1.148211         2.089202
 H         2.673015        -2.900393        -0.048390
 H         0.950464        -2.497232        -0.023919
 H         2.512167        -0.615274        -2.869587
