19
Iteration:  2764charge 0 multiplicity 1
 C        -0.241549        -0.321207         0.298123
 C         1.262153        -0.033704         0.154306
 C         1.965206         1.330186         0.266589
 O         3.373117         1.011816         0.117341
 C         3.386749        -0.410208         0.012344
 C         2.325794        -1.058677         0.978680
 C         2.022737        -2.114521        -0.106572
 C         2.213433        -0.799450        -0.899655
 O         2.080344        -0.660721        -2.322980
 H        -0.592668        -0.002876         1.216066
 H        -0.842622         0.287336        -0.430815
 H        -0.529562        -1.327227         0.194301
 H         1.722513         2.162595        -0.348968
 H         1.855712         1.703616         1.299676
 H         4.420071        -0.654030        -0.065755
 H         2.408320        -1.322631         2.035579
 H         2.779204        -2.823111        -0.250496
 H         0.997154        -2.403824        -0.088123
 H         1.374720        -1.190349        -2.643821
