19
Iteration:  3552
 C        -0.158823        -0.312686         0.374181
 C         1.383183        -0.076459         0.210645
 C         1.957168         1.341928         0.359578
 O         3.362984         1.020117         0.070513
 C         3.323344        -0.386397        -0.024941
 C         2.225604        -1.104261         0.908331
 C         2.008416        -2.151743        -0.144003
 C         2.176360        -0.825444        -0.950336
 O         2.033084        -0.638621        -2.301972
 H        -0.832566         0.441009         0.775382
 H        -0.645901        -0.571124        -0.648142
 H        -0.264150        -1.139841         1.018994
 H         1.542572         2.104656        -0.351048
 H         1.620630         1.926854         1.348271
 H         4.384516        -0.709154        -0.118391
 H         2.122773        -1.318877         1.988680
 H         2.933107        -2.761951        -0.099894
 H         1.075136        -2.545577        -0.291421
 H         2.797390        -0.198340        -2.648139
