19
Iteration:  1276charge 0 multiplicity 1
 C        -0.182484        -0.032056         0.164972
 C         1.378649        -0.042957         0.142936
 C         2.106708         1.304889         0.330419
 O         3.515024         0.900662         0.210823
 C         3.386793        -0.460496        -0.000381
 C         2.335800        -1.015721         0.920953
 C         1.947334        -2.145189        -0.103491
 C         2.093495        -0.866795        -0.896710
 O         1.827222        -0.683432        -2.289640
 H        -0.534270         0.667972         1.063902
 H        -0.457924         0.469904        -0.707690
 H        -0.737083        -1.014567         0.395022
 H         1.817041         2.103654        -0.388106
 H         1.911893         1.762394         1.327288
 H         4.364468        -1.062408        -0.165621
 H         2.274329        -1.135483         2.024707
 H         2.581515        -3.026917        -0.159837
 H         0.881407        -2.416435        -0.095731
 H         1.686599        -1.572296        -2.660153
