19
Iteration:  1032charge 0 multiplicity 1
 C        -0.052511        -0.024269         0.238913
 C         1.383203        -0.108296         0.290218
 C         2.052508         1.245196         0.241063
 O         3.430660         0.859319         0.125937
 C         3.421288        -0.516140        -0.081963
 C         2.246676        -1.128090         0.970015
 C         1.759086        -2.155554        -0.099271
 C         2.118908        -0.844837        -0.888948
 O         1.959725        -0.504087        -2.273597
 H        -0.287978        -0.314404        -0.732141
 H        -0.514712        -0.677620         0.989461
 H        -0.437809         0.985771         0.507789
 H         1.766827         1.821316        -0.626089
 H         1.831303         1.819443         1.149653
 H         4.296791        -1.113838        -0.079023
 H         2.418817        -1.392175         2.038993
 H         2.298359        -3.032054        -0.393420
 H         0.716665        -2.487213        -0.076988
 H         2.569724         0.237065        -2.378318
