19
Iteration:  1652charge 0 multiplicity 1
 C        -0.178487        -0.075233         0.353862
 C         1.317311        -0.053129         0.205983
 C         1.951789         1.325284         0.288117
 O         3.400413         0.965679         0.192237
 C         3.342070        -0.424550        -0.055143
 C         2.321222        -1.054693         0.877217
 C         1.931395        -2.155385        -0.097831
 C         2.097236        -0.887545        -0.941071
 O         2.170416        -0.726876        -2.346343
 H        -0.398718        -0.306449         1.526132
 H        -0.507491         0.933880         0.062431
 H        -0.508434        -0.968342        -0.162879
 H         1.619758         2.003076        -0.644650
 H         1.831373         1.891890         1.277014
 H         4.391273        -0.890932         0.019091
 H         2.328570        -0.994318         1.992002
 H         2.625192        -2.993207        -0.179953
 H         0.882181        -2.460691        -0.141276
 H         1.277198        -0.984024        -2.782216
