19
Iteration:  2354
 C        -0.183632        -0.172838         0.263529
 C         1.289316        -0.124277         0.243157
 C         2.027345         1.296777         0.261981
 O         3.328194         0.946961        -0.032798
 C         3.292717        -0.451351         0.006136
 C         2.243463        -1.076562         0.979428
 C         2.137656        -2.210421        -0.071254
 C         2.159974        -0.847819        -0.904784
 O         2.006055        -0.553098        -2.222743
 H        -0.484835         0.733502         0.881813
 H        -0.617976         0.124023        -0.672423
 H        -0.655997        -1.062601         0.515519
 H         1.507956         1.896836        -0.475696
 H         1.713363         1.780234         1.165801
 H         4.232176        -0.867359        -0.090673
 H         2.442612        -1.144063         2.088378
 H         3.069632        -2.836050        -0.001650
 H         1.228884        -2.872648        -0.086446
 H         2.664236         0.130642        -2.501178
