19
Iteration:  3890
 C        -0.108038        -0.408940         0.243332
 C         1.337495        -0.101869         0.184673
 C         1.981919         1.237586         0.462407
 O         3.418890         0.957206         0.268293
 C         3.374364        -0.399270        -0.031514
 C         2.272193        -1.156940         0.914371
 C         2.001144        -2.094746        -0.222770
 C         2.140321        -0.702660        -1.004892
 O         1.915552        -0.472042        -2.331783
 H        -0.830673         0.256640         0.784889
 H        -0.523207        -0.785831        -0.675185
 H        -0.281351        -1.249741         0.913100
 H         1.636434         1.967852        -0.259875
 H         1.836487         1.702788         1.467241
 H         4.479252        -0.811525        -0.114711
 H         2.303365        -1.265564         1.963307
 H         2.865007        -2.790540        -0.562268
 H         1.065335        -2.518948        -0.438965
 H         2.158365         0.408936        -2.531077
