19
Iteration:  3279
 C        -0.158000        -0.189824         0.337168
 C         1.357468        -0.063466         0.208215
 C         1.888194         1.299807         0.369808
 O         3.287989         1.018997         0.055652
 C         3.332162        -0.418118         0.028358
 C         2.299735        -1.055388         0.963314
 C         2.070277        -2.158684        -0.193851
 C         2.190188        -0.841910        -0.953195
 O         2.088718        -0.736400        -2.322745
 H        -0.541435         0.310353         1.171153
 H        -0.746412         0.333375        -0.468791
 H        -0.465884        -1.147476         0.370487
 H         1.410597         2.060004        -0.234863
 H         1.817895         1.634796         1.477824
 H         4.288871        -0.876155        -0.006329
 H         2.327575        -1.094697         2.129246
 H         2.980994        -2.789212        -0.228130
 H         1.128424        -2.767019        -0.245240
 H         2.068350         0.091162        -2.739577
