19
Iteration:  2048
 C        -0.159217        -0.184798         0.499415
 C         1.317383        -0.137875         0.160431
 C         1.914602         1.330485         0.150311
 O         3.317823         1.022190         0.026961
 C         3.316584        -0.404811        -0.003302
 C         2.238110        -1.098603         0.973774
 C         1.983121        -2.219841        -0.145821
 C         2.158499        -0.873683        -0.891243
 O         2.255063        -0.587748        -2.264650
 H        -0.414640        -0.128119         1.596903
 H        -0.456427         0.731066        -0.027536
 H        -0.633937        -1.080349         0.129925
 H         1.559058         1.792173        -0.785438
 H         1.665118         1.857858         1.135846
 H         4.436765        -0.728802         0.023531
 H         2.297175        -1.437708         2.106902
 H         2.802979        -2.924490        -0.419242
 H         0.935642        -2.690025        -0.218121
 H         1.476846        -0.121800        -2.590062
