19
Iteration:  4456charge 0 multiplicity 1
 C        -0.208857        -0.305168         0.500596
 C         1.288192        -0.078972         0.154776
 C         1.945497         1.292761         0.203515
 O         3.344217         1.085692         0.065973
 C         3.346595        -0.441199        -0.012980
 C         2.249830        -0.929528         0.951874
 C         1.931302        -2.073311        -0.093665
 C         2.183083        -0.864124        -0.928542
 O         2.198608        -0.802530        -2.359249
 H        -0.519936        -1.038041        -0.292684
 H        -0.332528        -0.718530         1.505319
 H        -0.867580         0.564961         0.656813
 H         1.597888         1.947354        -0.619493
 H         1.881165         1.879042         1.079496
 H         4.362166        -0.740065         0.010760
 H         2.393601        -1.178129         1.985336
 H         2.689145        -2.797779        -0.210715
 H         1.038990        -2.614023        -0.067696
 H         2.301295         0.107199        -2.593503
