19
Iteration:  3114
 C        -0.183044        -0.188604         0.336393
 C         1.335477        -0.084941         0.215379
 C         1.978211         1.301318         0.361837
 O         3.314016         1.104380         0.121579
 C         3.304221        -0.339786        -0.015178
 C         2.205809        -1.099106         0.908670
 C         2.102860        -2.155532        -0.161202
 C         2.162024        -0.828634        -0.938996
 O         2.082297        -0.878513        -2.327581
 H        -0.507947         0.176835         1.268659
 H        -0.559853         0.567758        -0.429047
 H        -0.584253        -1.122343         0.156923
 H         1.583978         2.024324        -0.306078
 H         1.797690         1.946994         1.261688
 H         4.386314        -0.683529        -0.046313
 H         2.314019        -1.213516         2.074185
 H         2.901580        -2.756579        -0.360815
 H         1.155006        -2.750911        -0.263123
 H         2.358570         0.081741        -2.469484
