19
Iteration:   835
 C        -0.294816         0.024243         0.456598
 C         1.294788        -0.002651         0.129318
 C         2.110017         1.331538         0.334381
 O         3.493889         0.900964         0.105203
 C         3.327902        -0.503624        -0.026544
 C         2.174548        -1.040305         0.873814
 C         1.919445        -2.118705        -0.142736
 C         2.176054        -0.839222        -0.965557
 O         2.049197        -0.853134        -2.328207
 H        -0.359615        -0.052200         1.504675
 H        -0.566201         0.959948        -0.023004
 H        -0.841915        -0.928637         0.158992
 H         1.823085         2.200084        -0.334296
 H         2.107118         1.673211         1.449255
 H         4.309158        -1.085666         0.057347
 H         2.235203        -1.086140         2.048328
 H         2.730174        -2.882462        -0.136578
 H         0.910708        -2.548142        -0.248045
 H         2.522469        -0.091224        -2.752644
