19
Iteration:  2364charge 0 multiplicity 1
 C        -0.228101        -0.087530         0.273528
 C         1.304343        -0.109450         0.219059
 C         1.907694         1.225712         0.260476
 O         3.357844         0.923064         0.008090
 C         3.321479        -0.449884        -0.049947
 C         2.299388        -1.083120         1.017467
 C         2.132861        -2.136898        -0.072074
 C         2.097125        -0.875554        -0.871087
 O         2.051601        -0.568440        -2.252253
 H        -0.767010         0.610353         1.021679
 H        -0.615601        -0.147318        -0.691362
 H        -0.446469        -1.025753         0.715406
 H         1.659954         1.811264        -0.612719
 H         2.008301         1.834026         1.181299
 H         4.298809        -0.832007        -0.250718
 H         2.264735        -1.174996         2.146070
 H         3.090276        -2.651257        -0.221557
 H         1.297960        -2.865664        -0.223787
 H         2.688989         0.115362        -2.412303
