19
Iteration:  3821charge 0 multiplicity 1
 C        -0.210586        -0.049126         0.290060
 C         1.317938        -0.108097         0.219920
 C         1.920766         1.243594         0.527557
 O         3.271707         0.980727         0.235853
 C         3.342290        -0.370794        -0.017458
 C         2.422172        -1.226218         0.925531
 C         2.214057        -2.256308        -0.332830
 C         2.179232        -0.838027        -0.968915
 O         1.920956        -0.567562        -2.404119
 H        -0.664175         0.736109         0.980110
 H        -0.619696        -0.039192        -0.806263
 H        -0.726939        -0.974076         0.742775
 H         1.494334         1.981722        -0.147084
 H         1.656640         1.579766         1.584693
 H         4.359413        -0.782066         0.020469
 H         2.677355        -1.438880         2.017090
 H         3.089140        -2.770245        -0.600258
 H         1.251820        -2.853447        -0.341448
 H         2.219626         0.356712        -2.411323
