19
Iteration:   134charge 0 multiplicity 1
 C        -0.155426         0.202187         0.506838
 C         1.327772         0.013333         0.118691
 C         2.051976         1.293799         0.226028
 O         3.475515         0.805463         0.086093
 C         3.325571        -0.623339        -0.044669
 C         2.207550        -1.035842         0.873510
 C         1.782977        -2.211004         0.024683
 C         2.059883        -0.869251        -0.949687
 O         2.125585        -0.664918        -2.383332
 H        -0.372897         0.269208         1.588820
 H        -0.574890         1.148819        -0.031480
 H        -0.713207        -0.601916         0.124449
 H         1.896949         2.049738        -0.445342
 H         1.885960         1.669515         1.215665
 H         4.342010        -1.174956         0.062061
 H         2.414531        -1.144475         1.923727
 H         2.638909        -2.864804        -0.108095
 H         0.818256        -2.648828         0.115852
 H         2.896284        -1.045358        -2.688635
