19
Iteration:   383charge 0 multiplicity 1
 C        -0.138547         0.145141         0.173915
 C         1.377632         0.006070         0.152538
 C         2.192397         1.283850         0.430684
 O         3.556817         0.881386         0.122090
 C         3.315208        -0.532110        -0.024114
 C         2.234709        -1.092664         1.004755
 C         1.832039        -2.051346        -0.047590
 C         2.099680        -0.834850        -0.962199
 O         1.911488        -0.908551        -2.330091
 H        -0.623058         0.454946         1.114110
 H        -0.418647         0.971734        -0.589344
 H        -0.569056        -0.756303        -0.197138
 H         1.948533         2.160027        -0.210805
 H         2.146858         1.618938         1.448303
 H         4.356973        -1.032833        -0.120726
 H         2.383711        -1.207215         2.069448
 H         2.446810        -2.960383        -0.186262
 H         0.763740        -2.353858        -0.085852
 H         1.176410        -0.413563        -2.574659
