19
Iteration:  1361
 C        -0.133348         0.013653         0.493456
 C         1.327020        -0.057172         0.147367
 C         2.076323         1.286399         0.225075
 O         3.416692         0.930740         0.093839
 C         3.254280        -0.484021         0.005295
 C         2.194933        -1.052965         0.955131
 C         1.874323        -2.158123        -0.079289
 C         2.111938        -0.882458        -0.924445
 O         2.173758        -0.766618        -2.397943
 H        -0.269704        -0.099203         1.526252
 H        -0.447497         1.014302         0.298832
 H        -0.787767        -0.526161        -0.234637
 H         1.665150         1.775428        -0.691163
 H         1.801761         1.789992         1.137651
 H         4.339328        -0.944096        -0.049166
 H         2.339765        -1.157026         2.055757
 H         2.735563        -2.745744        -0.253985
 H         0.935352        -2.696779        -0.173536
 H         1.835831         0.118074        -2.550736
