19
Iteration:  3877
 C        -0.134758        -0.488662         0.168566
 C         1.359847        -0.086872         0.276221
 C         2.013514         1.299925         0.463244
 O         3.412901         0.963215         0.292801
 C         3.356846        -0.449450         0.004280
 C         2.347651        -1.053264         0.861721
 C         2.005950        -2.118173        -0.316002
 C         2.124322        -0.738151        -0.922091
 O         1.849000        -0.485563        -2.333290
 H        -0.676803         0.524377         0.312797
 H        -0.349724        -0.495857        -0.938379
 H        -0.360331        -1.385064         0.813630
 H         1.748251         1.987199        -0.207109
 H         1.803114         1.743306         1.491808
 H         4.411823        -1.004302        -0.019411
 H         2.468566        -1.320185         1.905013
 H         2.836396        -2.838361        -0.538815
 H         1.107008        -2.597997         0.003409
 H         1.990711         0.513200        -2.526380
