19
Iteration:  1260
 C        -0.099384         0.085301         0.120565
 C         1.351708        -0.030813         0.087476
 C         2.125252         1.274510         0.397247
 O         3.535672         0.941880         0.243561
 C         3.428791        -0.486141         0.050345
 C         2.222828        -1.078746         0.945404
 C         1.999303        -2.159809        -0.049086
 C         2.125901        -0.863113        -0.993764
 O         1.651560        -0.709933        -2.306253
 H        -0.487586         0.806134         0.743703
 H        -0.519323         0.048452        -0.998016
 H        -0.352478        -0.888506         0.580799
 H         1.799047         2.134049        -0.311536
 H         1.845254         1.553544         1.424682
 H         4.420966        -0.828306         0.003167
 H         2.414513        -1.094178         2.002297
 H         2.868383        -2.833457        -0.254098
 H         1.185563        -2.870911         0.107996
 H         2.024371        -1.478826        -2.915100
