19
Iteration:  4086
 C        -0.207581        -0.264942         0.370218
 C         1.294141        -0.128135         0.275431
 C         1.886157         1.275118         0.477787
 O         3.339174         1.037795         0.176001
 C         3.316508        -0.391411        -0.095099
 C         2.320223        -1.051622         0.888387
 C         2.000324        -2.140127        -0.261985
 C         2.192104        -0.831928        -0.986756
 O         2.128664        -0.680498        -2.349855
 H        -0.841641        -1.077965         0.028822
 H        -0.323881        -0.279770         1.435340
 H        -0.681996         0.569477        -0.075247
 H         1.459441         1.972550        -0.349822
 H         1.860172         1.821639         1.434561
 H         4.394630        -0.570304        -0.301123
 H         2.568484        -1.298701         1.889833
 H         2.868875        -2.803852        -0.337597
 H         1.135022        -2.656792        -0.280150
 H         2.506149         0.149831        -2.604542
