19
Iteration:  3080
 C        -0.186747        -0.347786         0.441154
 C         1.273418        -0.020361         0.112865
 C         1.986390         1.349329         0.289303
 O         3.316071         0.981705         0.185619
 C         3.342098        -0.403164        -0.001791
 C         2.293428        -1.007648         0.925996
 C         1.965348        -2.014451        -0.086055
 C         2.164558        -0.830351        -0.963918
 O         2.165820        -0.802048        -2.429802
 H        -0.566051         0.172834         1.283934
 H        -0.832258        -0.053934        -0.424122
 H        -0.469576        -1.320006         0.562303
 H         1.675425         1.935653        -0.579361
 H         1.638860         1.563130         1.341482
 H         4.432985        -0.766191         0.018044
 H         2.564525        -1.055059         2.019317
 H         2.639194        -2.767737        -0.232781
 H         0.873595        -2.343552         0.033071
 H         2.329147         0.199007        -2.656131
