19
Iteration:   744charge 0 multiplicity 1
 C        -0.103583        -0.060346         0.247285
 C         1.400354         0.003845         0.049279
 C         2.136141         1.298548         0.182734
 O         3.514020         0.868399         0.114471
 C         3.337698        -0.547952        -0.008753
 C         2.177375        -1.047516         0.982747
 C         1.925744        -2.217793        -0.038144
 C         2.112692        -0.856870        -0.877872
 O         1.861122        -0.621412        -2.216102
 H        -0.312704        -0.303651         1.248789
 H        -0.727973         0.837351        -0.168802
 H        -0.484038        -0.899842        -0.193080
 H         1.929443         2.119388        -0.537680
 H         1.902983         1.754293         1.243264
 H         4.348165        -0.939973        -0.006265
 H         2.036322        -1.108730         2.005806
 H         2.793085        -2.931790        -0.073263
 H         0.915841        -2.623165         0.055242
 H         1.816498         0.422459        -2.322861
