19
Iteration:  3749charge 0 multiplicity 1
 C        -0.171608        -0.357053         0.465972
 C         1.302327        -0.130023         0.237449
 C         1.929490         1.270196         0.327548
 O         3.362337         1.026976         0.188935
 C         3.330990        -0.385460        -0.035894
 C         2.270727        -1.083496         0.901628
 C         1.926658        -2.149673        -0.308448
 C         2.154622        -0.780947        -0.965204
 O         2.168755        -0.543802        -2.305142
 H        -0.163025        -1.069540         1.298921
 H        -0.762885         0.598225         0.609755
 H        -0.793256        -0.810989        -0.296080
 H         1.540514         1.870229        -0.520604
 H         1.799206         1.618796         1.310662
 H         4.387970        -0.802122        -0.328703
 H         2.387173        -1.221275         1.948400
 H         2.648262        -3.010964        -0.740452
 H         0.944517        -2.589706        -0.318333
 H         2.651848         0.239278        -2.503127
