19
Iteration:  4774
 C        -0.264188        -0.123663         0.329097
 C         1.287347        -0.116256         0.277596
 C         1.919648         1.331493         0.031372
 O         3.341783         1.104850        -0.001902
 C         3.312197        -0.372798         0.029795
 C         2.324679        -0.932985         1.017247
 C         2.132666        -2.154946         0.020342
 C         2.187123        -0.904105        -0.884346
 O         2.044602        -0.943891        -2.233612
 H        -0.734191        -0.941636        -0.144740
 H        -0.683894         0.086549         1.288944
 H        -0.552597         0.686938        -0.289558
 H         1.568571         1.924259        -0.851926
 H         1.616952         1.879267         0.941934
 H         4.278079        -0.681479        -0.029896
 H         2.605150        -0.907469         2.139192
 H         3.028223        -2.928575        -0.199002
 H         1.275375        -2.796742        -0.086248
 H         2.673558        -0.474115        -2.774486
