19
Iteration:  1206charge 0 multiplicity 1
 C        -0.157220         0.006688         0.238673
 C         1.317696        -0.055566         0.260220
 C         2.105277         1.340157         0.301089
 O         3.464266         0.888580         0.123723
 C         3.349315        -0.520596        -0.030399
 C         2.350545        -1.114441         0.963517
 C         1.836919        -2.156590        -0.099063
 C         2.103842        -0.894069        -0.915144
 O         1.971843        -0.704977        -2.279240
 H        -0.427904         1.030604         0.204018
 H        -0.423798        -0.384872        -0.834987
 H        -0.718734        -0.496166         1.053331
 H         1.879832         1.993071        -0.616767
 H         1.892709         1.992687         1.152502
 H         4.296833        -0.854653        -0.347600
 H         2.462046        -1.268161         2.032506
 H         2.514795        -3.009769        -0.226113
 H         0.764644        -2.381459        -0.012607
 H         1.963269         0.309986        -2.461933
