19
Iteration:   362charge 0 multiplicity 1
 C        -0.118193         0.227304         0.164926
 C         1.437646         0.033758         0.122507
 C         2.081581         1.358034         0.311716
 O         3.499941         0.864892         0.243903
 C         3.371534        -0.559205        -0.085412
 C         2.361172        -1.060536         0.892723
 C         1.740781        -2.275998         0.003904
 C         2.067955        -0.954812        -0.929732
 O         1.977626        -0.759023        -2.273185
 H        -0.464545         0.421620         1.184424
 H        -0.441086         1.265264        -0.292720
 H        -0.679334        -0.563048        -0.200395
 H         1.855426         2.219107        -0.464569
 H         1.886628         1.787097         1.355680
 H         4.357001        -1.163746        -0.350216
 H         2.431554        -1.088952         1.987153
 H         2.382241        -3.097183        -0.289399
 H         0.771273        -2.596766         0.419004
 H         1.016266        -0.960077        -2.571269
