19
Iteration:   394
 C        -0.177430         0.078641         0.177523
 C         1.378499         0.051201         0.287134
 C         2.185404         1.305434         0.424920
 O         3.615647         0.842676         0.067039
 C         3.351230        -0.547900        -0.014471
 C         2.133781        -0.979189         0.963760
 C         1.851371        -2.059506        -0.141600
 C         2.145825        -0.809067        -0.908978
 O         1.894761        -0.934579        -2.312447
 H        -0.612395         0.469200         1.117705
 H        -0.477164         0.801452        -0.696119
 H        -0.649335        -0.847745         0.026065
 H         1.790181         2.111749        -0.223231
 H         2.184245         1.568634         1.451188
 H         4.150509        -1.385525        -0.107827
 H         2.103355        -1.178756         2.035324
 H         2.661828        -2.790315        -0.337092
 H         0.847282        -2.532506        -0.093128
 H         1.474978        -0.083640        -2.630563
