19
Iteration:  2143charge 0 multiplicity 1
 C        -0.153851        -0.078549         0.211202
 C         1.331938        -0.037341         0.248026
 C         1.963593         1.297336         0.334983
 O         3.399069         1.087570         0.244961
 C         3.359040        -0.359935        -0.018794
 C         2.347118        -1.199153         0.957168
 C         2.092188        -2.198979        -0.214772
 C         2.080858        -0.823922        -0.844816
 O         1.897918        -0.729391        -2.331420
 H        -0.749942         0.698709         0.872579
 H        -0.457098         0.045860        -0.824318
 H        -0.371885        -1.146378         0.444757
 H         1.863508         1.951420        -0.655049
 H         1.625091         1.962648         1.164963
 H         4.426098        -0.764889        -0.186615
 H         2.498450        -1.312183         1.985830
 H         2.997502        -2.766582        -0.551069
 H         1.208485        -2.830897        -0.247680
 H         2.007324        -1.604526        -2.610319
