19
Iteration:  2084charge 0 multiplicity 1
 C        -0.192247        -0.274479         0.328043
 C         1.298708        -0.070547         0.258821
 C         1.988308         1.369538         0.329634
 O         3.373366         1.017449         0.095534
 C         3.334274        -0.396700        -0.102624
 C         2.305215        -1.036397         0.953732
 C         1.995890        -2.165884        -0.084953
 C         2.099266        -0.863334        -0.926670
 O         2.165470        -0.671182        -2.333692
 H        -0.672182        -0.269032         1.267194
 H        -0.675931         0.628890        -0.227661
 H        -0.636840        -1.190196        -0.254664
 H         1.807452         2.238758        -0.396617
 H         1.827615         1.869141         1.404105
 H         4.290394        -0.850355        -0.022077
 H         2.493607        -1.198289         2.098904
 H         2.752544        -2.883192        -0.300330
 H         1.026887        -2.655605         0.001024
 H         1.276574        -0.823880        -2.757697
