19
Iteration:  4142
 C        -0.226514        -0.275354         0.508704
 C         1.257185        -0.113259         0.211718
 C         1.936916         1.286676         0.270262
 O         3.357353         1.036303         0.171045
 C         3.313406        -0.369255        -0.030136
 C         2.265667        -1.106818         0.905036
 C         2.053280        -2.183261        -0.216577
 C         2.146957        -0.795919        -1.003802
 O         2.167991        -0.627617        -2.348332
 H        -0.700315        -0.568274        -0.470854
 H        -0.584671        -1.098826         1.071977
 H        -0.616352         0.555763         1.081086
 H         1.422947         2.016095        -0.476189
 H         1.813160         1.709281         1.284121
 H         4.364133        -0.629472        -0.221236
 H         2.293412        -1.324773         2.023078
 H         2.876709        -2.871577        -0.353415
 H         1.167578        -2.723896        -0.183222
 H         2.650978         0.233750        -2.589336
