19
Iteration:  4814
 C        -0.076920        -0.349404         0.483134
 C         1.306261        -0.045068         0.076405
 C         1.887580         1.422253         0.035022
 O         3.338889         1.051265        -0.035962
 C         3.262630        -0.360677        -0.016995
 C         2.259905        -0.844466         1.025723
 C         1.911972        -2.167525         0.086227
 C         2.176720        -0.947533        -0.891608
 O         2.167902        -0.866862        -2.314696
 H        -0.459534        -1.173757        -0.127926
 H        -0.227663        -0.504793         1.594269
 H        -0.701482         0.566263         0.141941
 H         1.680582         2.104900        -0.785122
 H         1.792854         1.967594         0.990686
 H         4.224847        -0.994773         0.184298
 H         2.299525        -0.658286         2.132820
 H         2.684961        -2.928466         0.160795
 H         0.871852        -2.345664         0.222183
 H         3.039559        -0.329847        -2.415603
