19
Iteration:  2243
 C        -0.237442        -0.060700         0.370421
 C         1.380317        -0.095971         0.191892
 C         1.959061         1.287249         0.297017
 O         3.320724         1.063332         0.115671
 C         3.294229        -0.403352        -0.044478
 C         2.302246        -1.148332         0.932604
 C         2.046012        -2.202077        -0.066222
 C         2.159329        -0.860421        -0.983579
 O         2.125677        -0.770622        -2.349965
 H        -0.408647         0.089720         1.534878
 H        -0.782860         0.632914        -0.214880
 H        -0.679143        -0.975621         0.069562
 H         1.464137         2.023351        -0.424763
 H         1.842290         1.864854         1.237772
 H         4.419125        -0.673639        -0.009678
 H         2.294168        -1.281984         2.060825
 H         2.778309        -2.996460        -0.261420
 H         0.979767        -2.609831        -0.017426
 H         2.164441         0.188846        -2.528992
