19
Iteration:   453charge 0 multiplicity 1
 C        -0.151061         0.135493         0.410770
 C         1.337211        -0.065718         0.226763
 C         2.140740         1.237908         0.039127
 O         3.451850         0.866278         0.120014
 C         3.312072        -0.605805        -0.028920
 C         2.248226        -1.124745         0.957800
 C         1.739642        -2.179111        -0.059366
 C         2.201220        -0.948112        -0.883375
 O         2.067190        -0.471156        -2.245221
 H        -0.353829         0.953672         1.102517
 H        -0.615031         0.383177        -0.566332
 H        -0.698083        -0.803925         0.713328
 H         1.820757         1.725483        -0.961237
 H         1.844432         2.010593         0.864469
 H         4.322295        -1.025378        -0.091959
 H         2.370424        -1.215545         2.053479
 H         2.283347        -3.101551        -0.164551
 H         0.684779        -2.323243         0.053242
 H         2.161510        -1.174516        -2.873296
