19
Iteration:  3237
 C        -0.272971        -0.052773         0.455016
 C         1.264433        -0.136519         0.227118
 C         1.810963         1.266655         0.292175
 O         3.302038         1.001534         0.151602
 C         3.314560        -0.445648        -0.038488
 C         2.377498        -1.082927         0.907537
 C         2.148313        -2.173761        -0.137802
 C         2.173754        -0.857529        -0.954101
 O         2.136649        -0.702991        -2.384817
 H        -0.515497         0.826223         1.015263
 H        -0.620160         0.091934        -0.543023
 H        -0.637722        -1.028805         0.772093
 H         1.523559         1.850354        -0.544114
 H         1.635979         1.737460         1.387037
 H         4.295737        -0.798478        -0.200350
 H         2.552879        -1.132627         2.033985
 H         2.995831        -2.826730        -0.403826
 H         1.220401        -2.590335        -0.195340
 H         2.782115         0.027425        -2.534040
