19
Iteration:  1445charge 0 multiplicity 1
 C        -0.206947        -0.082451         0.100287
 C         1.342848        -0.097861         0.190218
 C         2.070358         1.291740         0.277947
 O         3.539385         0.968137         0.089087
 C         3.324351        -0.479570        -0.005206
 C         2.299098        -1.100646         1.029961
 C         2.019348        -2.168163        -0.103218
 C         2.145775        -0.877045        -0.839737
 O         1.850597        -0.539541        -2.205910
 H        -0.629638         0.794775         0.703826
 H        -0.661023        -0.014698        -1.010118
 H        -0.691703        -0.861811         0.683432
 H         1.745801         2.035971        -0.485749
 H         1.984381         1.727333         1.340167
 H         4.289106        -0.908663        -0.267190
 H         2.195519        -1.361743         2.091350
 H         2.760990        -3.026556        -0.343472
 H         0.972336        -2.528765         0.123152
 H         1.916053        -1.388521        -2.689300
