19
Iteration:  1155charge 0 multiplicity 1
 C        -0.250694        -0.038842         0.543214
 C         1.236968         0.061836         0.272396
 C         2.132981         1.335634         0.206064
 O         3.501812         0.876402         0.062474
 C         3.266566        -0.605062        -0.048927
 C         2.175477        -1.036607         0.891692
 C         1.824650        -2.196556        -0.162111
 C         2.089220        -0.845627        -0.964701
 O         2.303250        -0.632983        -2.318982
 H        -0.899669         0.920329         0.422019
 H        -0.676154        -0.830018         0.089278
 H        -0.145949        -0.396634         1.635496
 H         1.905532         1.942441        -0.645402
 H         1.965898         1.920768         1.139872
 H         4.225402        -1.196522         0.160133
 H         2.253934        -1.126371         1.978589
 H         2.627800        -2.864649        -0.389306
 H         0.824574        -2.594067        -0.254412
 H         1.404096        -0.617981        -2.814077
