19
Iteration:   502charge 0 multiplicity 1
 C        -0.230042         0.045890         0.346363
 C         1.316374         0.012276         0.178335
 C         2.143942         1.399035         0.289627
 O         3.574192         0.800525         0.154971
 C         3.320823        -0.544714        -0.096257
 C         2.202088        -1.032150         0.947806
 C         1.840124        -2.131373        -0.018684
 C         2.129625        -0.888861        -0.926271
 O         2.061017        -0.761080        -2.388042
 H        -0.461619         0.475353         1.345459
 H        -0.771958         0.746665        -0.346858
 H        -0.662479        -0.940832         0.242186
 H         1.872642         2.023327        -0.543277
 H         2.018827         1.958308         1.218625
 H         4.338490        -1.073311        -0.152493
 H         2.379919        -1.113531         2.052284
 H         2.622122        -2.927936         0.080500
 H         0.771016        -2.510145        -0.113823
 H         1.122221        -0.451234        -2.633372
