19
Iteration:  4029
 C        -0.160940        -0.260708         0.118029
 C         1.328779        -0.123597         0.211729
 C         1.947047         1.217487         0.447134
 O         3.349808         0.979505         0.268464
 C         3.382218        -0.371508         0.001261
 C         2.388663        -1.112914         0.912348
 C         2.159388        -2.184891        -0.236107
 C         2.212940        -0.770274        -0.932637
 O         1.770378        -0.557827        -2.233176
 H        -0.332703        -1.140925         0.692333
 H        -0.544705         0.748580         0.276962
 H        -0.465075        -0.408764        -0.916578
 H         1.612197         1.831018        -0.544183
 H         1.682539         1.839469         1.310715
 H         4.473810        -0.602322        -0.299331
 H         2.539732        -1.404682         1.903464
 H         2.970383        -2.924270        -0.332027
 H         1.163714        -2.603425        -0.200355
 H         1.927432         0.343606        -2.628283
