19
Iteration:     3
 C        -0.124169         0.132828         0.272373
 C         1.362379         0.012069         0.192051
 C         2.195238         1.278512         0.245665
 O         3.535707         0.805748         0.102946
 C         3.314440        -0.559899        -0.007623
 C         2.211085        -1.088008         0.951654
 C         1.795751        -2.150933        -0.081712
 C         2.083920        -0.878078        -0.899941
 O         1.898839        -0.642863        -2.245286
 H        -0.406813         0.628755         1.187814
 H        -0.541031         0.717301        -0.574900
 H        -0.557896        -0.782160         0.232523
 H         1.928003         1.990321        -0.633200
 H         2.124252         1.918333         1.130191
 H         4.284762        -1.089258        -0.182600
 H         2.335161        -1.148638         1.991437
 H         2.526770        -2.953402        -0.112664
 H         0.779918        -2.467850        -0.009757
 H         2.562455        -1.232325        -2.742432
