19
Iteration:  3556charge 0 multiplicity 1
 C        -0.180098        -0.301582         0.386176
 C         1.363178        -0.098924         0.239235
 C         1.936900         1.354395         0.339706
 O         3.380813         1.050987         0.072078
 C         3.318233        -0.398174        -0.056478
 C         2.197667        -1.107329         0.918379
 C         2.012609        -2.184603        -0.159650
 C         2.202037        -0.851081        -0.943747
 O         2.054893        -0.613617        -2.298248
 H        -0.648102         0.670337         0.703345
 H        -0.647335        -0.593311        -0.473382
 H        -0.267982        -1.163189         1.147987
 H         1.419750         2.114381        -0.422727
 H         1.623663         1.861131         1.328378
 H         4.447301        -0.731771        -0.168513
 H         2.149076        -1.274808         1.973675
 H         2.925309        -2.824021        -0.117137
 H         0.997999        -2.683027        -0.308913
 H         2.875908        -0.174182        -2.655201
