19
Iteration:   296charge 0 multiplicity 1
 C        -0.114333         0.024436         0.410714
 C         1.342124         0.004453         0.132986
 C         2.198322         1.297634         0.154641
 O         3.518995         0.770075         0.093392
 C         3.325954        -0.584403        -0.036987
 C         2.143786        -1.009358         1.017417
 C         1.661992        -2.103534        -0.043193
 C         2.095226        -0.902199        -0.917698
 O         2.138973        -0.579116        -2.308052
 H        -0.318291         0.624873         1.313123
 H        -0.759745         0.521577        -0.358232
 H        -0.398108        -0.947294         0.639510
 H         1.882640         1.960982        -0.773794
 H         2.044284         1.963415         1.072443
 H         4.334383        -1.043002        -0.245446
 H         1.986878        -0.989390         2.061267
 H         2.276155        -2.981201        -0.181455
 H         0.644776        -2.340567         0.159604
 H         2.007454        -1.402035        -2.793799
