19
Iteration:  4546charge 0 multiplicity 1
 C        -0.171154        -0.207656         0.108880
 C         1.360433        -0.126005         0.142811
 C         1.920591         1.344346         0.218708
 O         3.376200         1.040813         0.105210
 C         3.402575        -0.294863         0.037949
 C         2.359529        -0.998820         1.001955
 C         2.193225        -2.164451        -0.018389
 C         2.213591        -0.890652        -0.849637
 O         1.747515        -0.735774        -2.187562
 H        -0.501794         0.742588        -0.440681
 H        -0.628440        -0.900185        -0.647823
 H        -0.679799        -0.405177         1.096628
 H         1.545389         1.852477        -0.636449
 H         1.708191         1.909589         1.118280
 H         4.282077        -0.824638        -0.032133
 H         2.432745        -1.027326         2.178749
 H         2.946905        -2.880633        -0.231742
 H         1.355055        -2.794571        -0.036413
 H         2.264383        -1.339519        -2.674485
