19
Iteration:  4387charge 0 multiplicity 1
 C        -0.248868        -0.181216         0.089207
 C         1.385612        -0.073176         0.217378
 C         1.975895         1.293829         0.366679
 O         3.342983         1.085170         0.168817
 C         3.384939        -0.350159        -0.020989
 C         2.385973        -1.085521         0.964348
 C         2.163619        -2.126439        -0.098639
 C         2.191851        -0.910247        -0.923939
 O         1.811693        -0.802079        -2.245873
 H        -0.610918        -1.139836         0.621698
 H        -0.705294         0.711685         0.437601
 H        -0.776161        -0.134224        -0.842225
 H         1.686834         2.014269        -0.441522
 H         1.673759         1.708902         1.266553
 H         4.478531        -0.696176         0.064880
 H         2.575489        -1.166068         1.989181
 H         3.019558        -2.709898        -0.166788
 H         1.329093        -2.802531        -0.126378
 H         2.036237         0.024870        -2.618388
