19
Iteration:   494
 C        -0.222194         0.031677         0.390299
 C         1.341787         0.039622         0.233753
 C         2.187197         1.335440         0.199204
 O         3.540485         0.807875         0.136475
 C         3.302349        -0.551878        -0.052827
 C         2.091532        -0.977419         0.975024
 C         1.922667        -2.140331        -0.090388
 C         2.105029        -0.880319        -0.970464
 O         2.080091        -0.720090        -2.313967
 H        -0.428437         0.503663         1.347854
 H        -0.783551         0.623450        -0.463974
 H        -0.684011        -0.909576         0.371473
 H         1.965042         1.965956        -0.663527
 H         2.163709         1.930062         1.048324
 H         4.229462        -1.289760        -0.097584
 H         2.353447        -1.232595         2.034116
 H         2.620764        -2.982747        -0.110815
 H         0.882509        -2.570948        -0.208003
 H         1.077820        -0.578705        -2.558066
