19
Iteration:  2785charge 0 multiplicity 1
 C        -0.105048        -0.122853         0.197812
 C         1.362663        -0.165880         0.169029
 C         1.919077         1.247934         0.271537
 O         3.350861         1.021266         0.212663
 C         3.349677        -0.360413         0.029811
 C         2.294192        -1.027779         0.931077
 C         2.154395        -2.212101        -0.091939
 C         2.129148        -0.889775        -0.930874
 O         1.939340        -0.587227        -2.288345
 H        -0.496784         0.219652         1.083997
 H        -0.657515         0.386268        -0.604789
 H        -0.502073        -1.136029         0.167312
 H         1.551013         1.863439        -0.558887
 H         1.616036         1.817301         1.280743
 H         4.327852        -0.780007        -0.126181
 H         2.503815        -0.941608         1.973044
 H         3.033117        -2.768095        -0.196243
 H         1.231339        -2.664568         0.043176
 H         1.556802        -1.414406        -2.689733
