19
Iteration:  4581
 C        -0.102546        -0.371482         0.148326
 C         1.343837        -0.030336         0.168885
 C         1.921280         1.430135         0.225179
 O         3.393024         1.025962         0.146178
 C         3.345629        -0.370812        -0.031437
 C         2.370836        -0.928097         0.952513
 C         2.014717        -2.141535         0.037299
 C         2.152219        -0.856616        -0.873320
 O         1.880831        -0.790991        -2.251639
 H        -0.549216         0.567820         0.409711
 H        -0.509783        -0.806822        -0.777731
 H        -0.398082        -1.007623         1.014072
 H         1.821604         2.089914        -0.568380
 H         1.665193         1.917622         1.188924
 H         4.418278        -0.591729        -0.214543
 H         2.589778        -0.844196         2.038321
 H         2.788141        -2.753171        -0.339026
 H         0.965886        -2.458456         0.141947
 H         2.323935        -1.495024        -2.655777
