19
Iteration:  3429charge 0 multiplicity 1
 C        -0.175682        -0.319324         0.388758
 C         1.329722        -0.058492         0.134371
 C         1.940847         1.318802         0.268758
 O         3.354310         1.055308         0.102053
 C         3.378517        -0.388858        -0.044680
 C         2.337520        -1.055035         0.972429
 C         1.905425        -2.076210        -0.136747
 C         2.133006        -0.800415        -0.934225
 O         2.131095        -0.774011        -2.298653
 H        -0.173493        -0.978898         1.256268
 H        -0.899069         0.538068         0.444092
 H        -0.726345        -0.971336        -0.248042
 H         1.550823         2.068269        -0.559533
 H         1.718666         1.762597         1.411681
 H         4.371333        -0.735659         0.044890
 H         2.262364        -1.071390         2.083776
 H         2.555233        -2.874363        -0.319850
 H         0.860014        -2.534890        -0.117696
 H         2.581128         0.000767        -2.564253
