19
Iteration:  3874charge 0 multiplicity 1
 C        -0.133789        -0.473580         0.143115
 C         1.333630        -0.084882         0.302563
 C         2.028702         1.315242         0.457960
 O         3.411359         0.968079         0.301630
 C         3.367890        -0.461197         0.020376
 C         2.373641        -1.054174         0.852578
 C         2.021364        -2.138254        -0.338003
 C         2.136926        -0.750648        -0.934051
 O         1.834871        -0.491300        -2.320270
 H        -0.733275         0.446746         0.321578
 H        -0.321721        -0.480726        -0.978358
 H        -0.471374        -1.329803         0.822491
 H         1.674864         2.147505        -0.214563
 H         1.788023         1.706170         1.448537
 H         4.305847        -0.933523        -0.152008
 H         2.518182        -1.357126         1.942443
 H         2.816434        -2.795300        -0.463264
 H         1.028933        -2.569019         0.032848
 H         1.966574         0.458338        -2.435781
