19
Iteration:  4683charge 0 multiplicity 1
 C        -0.168080        -0.254448         0.313662
 C         1.340594        -0.048271         0.170384
 C         1.878595         1.360480         0.128178
 O         3.384317         1.033628         0.054815
 C         3.351603        -0.363856        -0.021434
 C         2.320952        -0.932635         0.972551
 C         2.007790        -2.096569        -0.007313
 C         2.190560        -0.856196        -0.838621
 O         2.026407        -0.916182        -2.277569
 H        -0.331353        -0.838431         1.188946
 H        -0.792994         0.649545         0.377082
 H        -0.560563        -0.927785        -0.436643
 H         1.526945         1.903458        -0.734278
 H         1.835833         2.042933         0.989258
 H         4.499574        -0.666642         0.034126
 H         2.280580        -0.990858         2.045766
 H         2.744442        -2.993805        -0.048011
 H         1.023344        -2.661838         0.201624
 H         2.194463         0.046809        -2.590534
