19
Iteration:  4155charge 0 multiplicity 1
 C        -0.237034        -0.200169         0.377752
 C         1.315976        -0.131021         0.214639
 C         1.854789         1.275790         0.325137
 O         3.296087         1.034957         0.160732
 C         3.371299        -0.414373        -0.017912
 C         2.366273        -1.127242         0.903222
 C         2.100221        -2.171278        -0.206783
 C         2.125619        -0.861761        -0.896531
 O         2.088411        -0.602195        -2.354180
 H        -0.907918         0.044931        -0.464410
 H        -0.333722        -1.121549         0.852257
 H        -0.559277         0.652817         0.934735
 H         1.715108         1.953414        -0.611323
 H         1.548754         1.880015         1.275340
 H         4.295986        -0.868157        -0.196768
 H         2.605035        -1.389955         2.028034
 H         2.955220        -2.735959        -0.401332
 H         1.222446        -2.823158        -0.221801
 H         2.591317         0.191783        -2.419478
