19
Iteration:  4337charge 0 multiplicity 1
 C        -0.156209        -0.336122         0.322834
 C         1.311268        -0.048257         0.188420
 C         1.886790         1.298548         0.285978
 O         3.387573         1.074780         0.097560
 C         3.385326        -0.368263         0.011144
 C         2.344530        -1.060131         0.924104
 C         2.009952        -2.185790        -0.087158
 C         2.148987        -0.827857        -0.914355
 O         2.001169        -0.652348        -2.299960
 H        -0.513533        -0.596858         1.357827
 H        -0.847200         0.510002        -0.025493
 H        -0.528908        -1.080616        -0.427819
 H         1.613335         2.019455        -0.490739
 H         1.791713         1.738281         1.377637
 H         4.358477        -0.765158        -0.199533
 H         2.369072        -1.155257         2.075303
 H         2.674757        -3.140256        -0.337556
 H         0.977709        -2.566961         0.032213
 H         2.770952        -0.232112        -2.819158
