19
Iteration:  2779
 C        -0.149267        -0.186559         0.225384
 C         1.374480        -0.148546         0.124676
 C         1.902649         1.272725         0.304921
 O         3.352215         1.003341         0.184150
 C         3.398380        -0.390251         0.045308
 C         2.340139        -0.997477         0.940012
 C         2.112175        -2.125492        -0.091916
 C         2.120416        -0.877542        -0.945868
 O         1.970967        -0.591741        -2.287926
 H        -0.526100         0.226226         1.253825
 H        -0.603229         0.366448        -0.619388
 H        -0.621136        -1.197230         0.136340
 H         1.566132         1.860769        -0.568349
 H         1.620082         1.709648         1.195077
 H         4.355730        -0.937788        -0.086955
 H         2.282270        -0.944738         2.084060
 H         2.991330        -2.852253        -0.253397
 H         1.159386        -2.809790        -0.008068
 H         1.476756        -1.409320        -2.625332
