19
Iteration:  1786
 C        -0.185002        -0.138564         0.098014
 C         1.320522        -0.071585         0.156409
 C         2.015189         1.281175         0.283137
 O         3.443817         0.954195         0.187049
 C         3.420967        -0.381805         0.030497
 C         2.336079        -1.042906         0.972882
 C         2.030263        -2.242090        -0.129179
 C         2.187903        -0.866605        -0.860569
 O         1.823237        -0.575978        -2.201638
 H        -0.650764         0.577958         0.863492
 H        -0.735606         0.255147        -0.824861
 H        -0.726718        -1.072533         0.280304
 H         1.732093         1.987982        -0.522163
 H         1.848317         1.865111         1.183131
 H         4.405071        -0.740622        -0.204538
 H         2.506156        -1.136973         2.019133
 H         2.793070        -3.015202        -0.090425
 H         1.029363        -2.693163        -0.217142
 H         2.070024        -1.375758        -2.783238
