19
Iteration:  1266
 C        -0.122455         0.042148         0.133390
 C         1.379298        -0.010521         0.094815
 C         2.078416         1.234804         0.395430
 O         3.540794         0.942514         0.221338
 C         3.412983        -0.449937         0.059541
 C         2.277067        -1.043914         0.927838
 C         1.957803        -2.164641        -0.054254
 C         2.109950        -0.876772        -0.980604
 O         1.718631        -0.695384        -2.300905
 H        -0.539540         0.878705         0.842910
 H        -0.643505         0.151050        -0.753995
 H        -0.510777        -0.996942         0.366477
 H         2.052889         1.939932        -0.399789
 H         1.905861         1.602803         1.431295
 H         4.424186        -0.976623        -0.148595
 H         2.415489        -1.127515         2.036270
 H         2.849909        -2.807892        -0.170830
 H         0.991106        -2.731747        -0.036186
 H         1.838063        -1.505327        -2.729923
