19
Iteration:   764charge 0 multiplicity 1
 C        -0.169149        -0.044157         0.373028
 C         1.325906        -0.042020         0.290442
 C         2.096661         1.333871         0.192529
 O         3.486422         0.901994         0.057689
 C         3.323693        -0.555088         0.045914
 C         2.248786        -1.056832         0.976218
 C         1.839529        -2.144578        -0.145012
 C         2.110146        -0.862131        -0.885800
 O         2.007804        -0.693831        -2.343199
 H        -0.554590        -0.402565         1.365937
 H        -0.454651         1.045078         0.122045
 H        -0.634841        -0.734935        -0.310092
 H         1.872828         1.812071        -0.765681
 H         1.942533         2.065319         0.996891
 H         4.350252        -0.905725        -0.049447
 H         2.400484        -1.247848         2.020073
 H         2.608692        -2.943613        -0.287221
 H         0.787324        -2.542323        -0.090740
 H         2.521805         0.116138        -2.526325
