19
Iteration:  1337charge 0 multiplicity 1
 C        -0.247535         0.015916         0.579113
 C         1.228734         0.001545         0.034084
 C         2.046102         1.327202         0.166949
 O         3.421739         0.860868         0.017038
 C         3.326506        -0.558980         0.006080
 C         2.223374        -1.028167         0.893763
 C         1.882976        -2.219074        -0.044114
 C         2.167139        -0.931749        -0.927165
 O         2.271570        -0.631105        -2.299869
 H        -0.053706        -0.182873         1.538863
 H        -0.847917         1.003523         0.588325
 H        -0.888238        -0.604537         0.021055
 H         1.725955         2.003195        -0.635955
 H         1.904611         1.666721         1.178711
 H         4.367461        -0.904878        -0.089614
 H         2.226728        -1.164890         1.980618
 H         2.646375        -3.011099         0.155169
 H         0.834950        -2.528732        -0.230526
 H         1.530356        -0.091119        -2.422068
