19
Iteration:  1434
 C        -0.183431        -0.089455         0.093002
 C         1.360183        -0.064246         0.153718
 C         2.130077         1.297957         0.350911
 O         3.474101         0.938793         0.116463
 C         3.423814        -0.470257         0.021916
 C         2.269574        -1.007299         0.923777
 C         2.001571        -2.220547        -0.036783
 C         2.109785        -0.899281        -0.915788
 O         1.777849        -0.564691        -2.205273
 H        -0.564493         0.768415         0.729705
 H        -0.609988         0.120317        -1.003853
 H        -0.567779        -1.073977         0.405444
 H         1.797754         2.120707        -0.314420
 H         1.908165         1.612228         1.434403
 H         4.367987        -0.997195        -0.001926
 H         2.430214        -1.015770         2.012228
 H         2.876038        -2.970600         0.024282
 H         1.000850        -2.749213        -0.065587
 H         2.043027        -1.207882        -2.809857
