19
Iteration:  1149charge 0 multiplicity 1
 C        -0.180008         0.027916         0.578222
 C         1.275804         0.048728         0.281532
 C         2.076464         1.343686         0.226352
 O         3.468853         0.881024         0.110099
 C         3.268279        -0.607488        -0.069024
 C         2.182574        -1.066595         0.901459
 C         1.844417        -2.151339        -0.174112
 C         2.062563        -0.865458        -0.953434
 O         2.287211        -0.648036        -2.347548
 H        -0.760146         0.810933         0.133172
 H        -0.683574        -0.946947         0.007860
 H        -0.448576        -0.337014         1.554744
 H         1.976576         1.920372        -0.759713
 H         2.013768         1.980799         1.123198
 H         4.242720        -1.074656        -0.162413
 H         2.276915        -1.273853         1.986556
 H         2.612716        -2.997970        -0.302226
 H         0.797949        -2.526378        -0.323186
 H         1.580377        -0.883927        -2.874293
