19
Iteration:  1895charge 0 multiplicity 1
 C        -0.302528        -0.142615         0.373919
 C         1.312058        -0.084921         0.233265
 C         1.970341         1.317332         0.127849
 O         3.380038         1.024599         0.195016
 C         3.388000        -0.409881         0.004142
 C         2.355266        -1.146642         0.975132
 C         1.976316        -2.178187        -0.136043
 C         2.170275        -0.905934        -0.884434
 O         2.086573        -0.685799        -2.333587
 H        -0.428952         0.187493         1.442441
 H        -0.712256         0.471916        -0.420050
 H        -0.634680        -1.090065         0.157726
 H         1.671432         1.818397        -0.823259
 H         1.787866         2.132513         0.848040
 H         4.414773        -0.747140        -0.101518
 H         2.457211        -1.293705         2.048009
 H         2.473269        -3.010118        -0.518999
 H         0.928178        -2.345082        -0.099396
 H         2.199370         0.207615        -2.560983
