19
Iteration:   734
 C        -0.166275        -0.076789         0.180830
 C         1.320868        -0.007025         0.127308
 C         2.177964         1.285347         0.257591
 O         3.497725         0.832240         0.135591
 C         3.409852        -0.548884         0.000235
 C         2.224804        -0.961002         0.942318
 C         1.931715        -2.172304        -0.034761
 C         2.168128        -0.895432        -0.898803
 O         1.812789        -0.631300        -2.239197
 H        -0.482037         0.073434         1.163084
 H        -0.659023         0.792963        -0.393627
 H        -0.448485        -0.961499        -0.233854
 H         2.100395         2.051947        -0.536154
 H         1.908123         1.718925         1.325935
 H         4.399413        -0.970317        -0.038941
 H         2.315327        -0.915846         1.976795
 H         2.710716        -2.976136        -0.091343
 H         1.005792        -2.717333        -0.049050
 H         1.432404         0.341550        -2.286503
