19
Iteration:  3193
 C        -0.210815        -0.413872         0.251223
 C         1.350554        -0.061463         0.206392
 C         1.964829         1.343623         0.244303
 O         3.413915         1.016532         0.113443
 C         3.366006        -0.367994         0.070947
 C         2.277037        -0.987475         0.981488
 C         1.988577        -2.084783        -0.207159
 C         2.215654        -0.817837        -0.914024
 O         1.928324        -0.677774        -2.243709
 H        -0.585532         0.015475         1.154524
 H        -0.726950        -0.027373        -0.629642
 H        -0.363380        -1.488572         0.270103
 H         1.771625         1.959817        -0.565933
 H         1.868520         1.709816         1.235091
 H         4.360051        -0.718843         0.016894
 H         2.397102        -1.426162         2.024347
 H         2.640305        -2.946906        -0.234657
 H         1.044869        -2.395071        -0.096178
 H         2.745324        -0.268739        -2.611522
