19
Iteration:   267charge 0 multiplicity 1
 C        -0.184480         0.213780         0.304428
 C         1.320012         0.014744         0.230554
 C         2.194663         1.335772         0.323964
 O         3.488779         0.845307         0.126933
 C         3.303791        -0.518789        -0.100265
 C         2.237594        -1.133057         0.962017
 C         1.760387        -2.185795        -0.055155
 C         2.110672        -0.892807        -0.944799
 O         2.057719        -0.719247        -2.349537
 H        -0.385446         1.097149         0.927677
 H        -0.661546         0.352635        -0.730493
 H        -0.710008        -0.647878         0.779078
 H         1.879015         2.004508        -0.435007
 H         2.084476         1.761571         1.343739
 H         4.364616        -1.007715        -0.278277
 H         2.487995        -1.291073         2.099680
 H         2.340583        -3.124213        -0.133039
 H         0.688170        -2.488686         0.124185
 H         2.314679        -1.531641        -2.712355
