19
Iteration:  3330
 C        -0.107995        -0.298422         0.182414
 C         1.376826        -0.062905         0.223983
 C         1.968495         1.329026         0.259137
 O         3.328592         1.001920         0.184603
 C         3.363952        -0.354377         0.026446
 C         2.351900        -1.074342         0.952166
 C         2.098600        -2.090405        -0.111497
 C         2.135468        -0.836199        -0.893497
 O         1.853459        -0.724008        -2.249771
 H        -0.700113        -0.524265         1.125479
 H        -0.660400         0.686827        -0.175454
 H        -0.320080        -1.032524        -0.614582
 H         1.615476         1.833749        -0.715747
 H         1.760501         1.924701         1.168077
 H         4.364471        -0.843590         0.003792
 H         2.415656        -1.230973         2.027184
 H         2.831634        -2.761680        -0.499234
 H         1.018201        -2.503709        -0.187164
 H         2.564208        -0.195212        -2.673952
