19
Iteration:  4136charge 0 multiplicity 1
 C        -0.208255        -0.332350         0.552011
 C         1.285005        -0.084860         0.207388
 C         1.933758         1.288910         0.300840
 O         3.360295         1.026454         0.157240
 C         3.256291        -0.386945        -0.043148
 C         2.229584        -1.082101         0.863521
 C         2.091004        -2.154368        -0.221976
 C         2.172700        -0.793891        -0.971413
 O         2.191352        -0.638204        -2.362009
 H        -0.796217        -0.490430        -0.346020
 H        -0.482801        -1.242268         1.204485
 H        -0.748824         0.635256         0.823466
 H         1.487352         1.929149        -0.430138
 H         1.861553         1.808833         1.301733
 H         4.308253        -0.669831        -0.115407
 H         2.144243        -1.146370         1.959164
 H         2.761609        -3.044011        -0.419042
 H         0.946643        -2.492570        -0.247863
 H         2.631071         0.196665        -2.628825
