19
Iteration:  4185
 C        -0.165716        -0.171886         0.166282
 C         1.354037        -0.178184         0.261368
 C         1.900717         1.209607         0.379543
 O         3.353553         1.093319         0.161470
 C         3.404240        -0.345440        -0.050810
 C         2.331700        -1.138491         0.935000
 C         2.154150        -2.192715        -0.147673
 C         2.184171        -0.873660        -0.863881
 O         1.838905        -0.615160        -2.281191
 H        -0.521278         0.579682        -0.690771
 H        -0.722378        -1.057723        -0.237824
 H        -0.664123         0.178370         1.125293
 H         1.548364         1.899777        -0.432506
 H         1.631491         1.679320         1.280174
 H         4.457158        -0.663742        -0.215248
 H         2.469122        -1.403247         2.036848
 H         3.100592        -2.800606        -0.233698
 H         1.269531        -2.755391        -0.242560
 H         2.441249         0.130591        -2.550063
