19
Iteration:  1484charge 0 multiplicity 1
 C        -0.145871        -0.082892         0.427246
 C         1.303328        -0.061205         0.225278
 C         1.996836         1.313356         0.181905
 O         3.426991         0.944782         0.179597
 C         3.323652        -0.456882        -0.054559
 C         2.250132        -1.077561         0.982306
 C         1.892778        -2.192385        -0.129415
 C         2.163658        -0.916488        -0.968687
 O         2.164954        -0.584903        -2.305246
 H        -0.567787         0.947084         0.635420
 H        -0.613387        -0.232869        -0.533504
 H        -0.494286        -0.795376         1.202095
 H         1.709925         1.931534        -0.695665
 H         1.780143         2.034450         0.952056
 H         4.251658        -0.994509        -0.163897
 H         2.335128        -1.184479         2.057591
 H         2.427460        -3.073764        -0.370191
 H         0.866075        -2.489599        -0.079457
 H         1.487238        -1.060306        -2.882969
