19
Iteration:  1144
 C        -0.153115         0.021956         0.573252
 C         1.326969         0.023031         0.266487
 C         2.060056         1.347758         0.228657
 O         3.441442         0.863488         0.144470
 C         3.271345        -0.559596        -0.070279
 C         2.182107        -1.096581         0.920768
 C         1.842526        -2.128159        -0.188133
 C         2.063333        -0.869167        -0.964951
 O         2.276500        -0.655349        -2.353321
 H        -0.693651         0.869158         0.034810
 H        -0.531066        -0.771985         0.033242
 H        -0.646660        -0.095426         1.593173
 H         1.863823         1.890653        -0.677670
 H         2.013886         2.038762         1.095139
 H         4.252536        -1.033306        -0.401119
 H         2.308557        -1.349605         1.970139
 H         2.511539        -2.965265        -0.242749
 H         0.825343        -2.513810        -0.238354
 H         1.557310        -1.120062        -2.936606
