19
Iteration:   751
 C        -0.083369        -0.071146         0.281984
 C         1.403128        -0.005538         0.107386
 C         2.107191         1.340701         0.169489
 O         3.516572         0.898846         0.096277
 C         3.334498        -0.517667         0.049578
 C         2.176203        -1.102623         0.974039
 C         1.914324        -2.172995        -0.036977
 C         2.072075        -0.892181        -0.926263
 O         1.911392        -0.633379        -2.240710
 H        -0.292481        -0.193657         1.432420
 H        -0.677875         0.830944         0.072859
 H        -0.579700        -0.855555        -0.432264
 H         1.747758         2.049586        -0.600798
 H         2.018228         1.831737         1.091434
 H         4.169183        -1.261725        -0.141206
 H         2.094180        -1.211146         2.117830
 H         2.682896        -2.943876        -0.163218
 H         0.880013        -2.643328        -0.057567
 H         2.080170         0.350955        -2.365554
