19
Iteration:  3590charge 0 multiplicity 1
 C        -0.244164        -0.116058         0.441253
 C         1.276047        -0.135162         0.241775
 C         1.787538         1.281165         0.229777
 O         3.285797         0.952460         0.138400
 C         3.346940        -0.460743        -0.078466
 C         2.393413        -1.184051         0.934861
 C         2.101618        -2.129358        -0.186609
 C         2.153993        -0.826617        -0.947150
 O         2.160795        -0.554642        -2.305930
 H        -0.494729         0.965905         0.266697
 H        -0.848189        -0.823174        -0.033000
 H        -0.372346        -0.194206         1.615294
 H         1.361499         1.731137        -0.803762
 H         1.636866         1.721488         1.236562
 H         4.410934        -0.779563        -0.326140
 H         2.441980        -1.384965         2.011370
 H         2.939981        -2.814669        -0.319729
 H         1.215125        -2.895680        -0.073361
 H         2.830415         0.106780        -2.446458
