19
Iteration:  1661charge 0 multiplicity 1
 C        -0.234360        -0.068398         0.409802
 C         1.259902        -0.063062         0.140098
 C         1.977837         1.295679         0.317706
 O         3.420313         0.962328         0.146329
 C         3.337670        -0.414030         0.003784
 C         2.292260        -1.010586         0.877931
 C         1.953541        -2.148041        -0.150725
 C         2.127177        -0.873736        -0.951163
 O         2.226280        -0.767889        -2.339554
 H        -0.463916        -0.081197         1.622485
 H        -0.736261         0.846143         0.048666
 H        -0.945383        -0.803106        -0.066198
 H         1.754748         2.096108        -0.493708
 H         1.805656         1.676621         1.384182
 H         4.234918        -0.897538        -0.357537
 H         2.501527        -1.135463         1.988730
 H         2.755900        -2.866466        -0.201360
 H         1.004313        -2.610184         0.085663
 H         1.243147        -0.803157        -2.618507
