19
Iteration:  4384
 C        -0.244116        -0.203193         0.095572
 C         1.398907        -0.074200         0.207060
 C         1.957259         1.295792         0.356719
 O         3.371023         1.081983         0.171790
 C         3.385870        -0.338152        -0.020571
 C         2.380860        -1.087997         0.935554
 C         2.154149        -2.132461        -0.092409
 C         2.167327        -0.877465        -0.897439
 O         1.804468        -0.806557        -2.248811
 H        -0.601608        -1.011979         0.640406
 H        -0.789670         0.711121         0.462806
 H        -0.660601        -0.256087        -0.978880
 H         1.702559         2.005989        -0.443928
 H         1.687935         1.689797         1.380099
 H         4.418517        -0.686786         0.035903
 H         2.591050        -1.120634         2.100307
 H         3.111645        -2.781237        -0.156519
 H         1.244456        -2.852110        -0.135200
 H         2.134383         0.052823        -2.607019
