19
Iteration:  4750
 C        -0.145474        -0.037843         0.142597
 C         1.340402        -0.117621         0.189090
 C         1.847530         1.339832         0.169460
 O         3.305289         1.047328         0.017169
 C         3.343647        -0.273487        -0.014975
 C         2.365836        -0.996640         1.003537
 C         2.217802        -2.168350         0.109545
 C         2.151474        -0.949124        -0.874849
 O         1.933789        -0.959383        -2.198579
 H        -0.547835        -0.990929         0.120648
 H        -0.470558         0.550571         0.996880
 H        -0.595919         0.430538        -0.743276
 H         1.593166         2.045880        -0.593809
 H         1.627392         1.842416         1.162818
 H         4.400872        -0.646429        -0.121879
 H         2.302990        -1.095886         2.152774
 H         3.071782        -3.016723        -0.137197
 H         1.277359        -2.797974         0.105160
 H         2.111898        -0.149929        -2.654425
