19
Iteration:  4188
 C        -0.168535        -0.180759         0.137911
 C         1.350705        -0.126747         0.255119
 C         1.905622         1.206098         0.407861
 O         3.376580         1.101253         0.158218
 C         3.407765        -0.364991        -0.050125
 C         2.333558        -1.142682         0.939263
 C         2.184148        -2.199237        -0.137672
 C         2.170094        -0.876286        -0.873292
 O         1.816647        -0.625209        -2.283171
 H        -0.523715         0.542868        -0.667745
 H        -0.695596        -0.986120        -0.283942
 H        -0.627863        -0.014181         1.106421
 H         1.426689         1.832000        -0.474270
 H         1.605117         1.758631         1.363449
 H         4.413500        -0.638093        -0.148687
 H         2.455946        -1.407666         2.068602
 H         3.027263        -2.777497        -0.262135
 H         1.218341        -2.687522        -0.272417
 H         2.458828         0.124720        -2.497494
