19
Iteration:   656charge 0 multiplicity 1
 C        -0.212132         0.066777         0.460471
 C         1.299488        -0.005870         0.136594
 C         2.174942         1.325673         0.292107
 O         3.507735         0.849900         0.076200
 C         3.309962        -0.536352         0.006203
 C         2.169502        -1.028925         0.959510
 C         1.938248        -2.228244        -0.058805
 C         2.070607        -0.895883        -0.979703
 O         2.083990        -0.601734        -2.426968
 H        -0.391868         0.946089         1.074943
 H        -0.886026        -0.062062        -0.443688
 H        -0.477885        -0.722954         1.078589
 H         1.787832         2.126516        -0.365548
 H         1.865436         1.700023         1.372051
 H         4.315351        -1.151055         0.023113
 H         1.987765        -1.024993         2.051169
 H         2.856098        -2.849637        -0.074436
 H         0.927603        -2.753356         0.011273
 H         1.605264        -1.393564        -2.847467
