19
Iteration:   302charge 0 multiplicity 1
 C        -0.128212         0.026889         0.398833
 C         1.355975         0.017717         0.104891
 C         2.235697         1.314978         0.103706
 O         3.532992         0.795369         0.076521
 C         3.291697        -0.558252        -0.001051
 C         2.109472        -1.023428         0.999573
 C         1.677394        -2.144491        -0.082829
 C         2.098568        -0.884223        -0.901257
 O         2.120714        -0.585301        -2.228833
 H        -0.205483         0.500305         1.402176
 H        -0.825576         0.491847        -0.265701
 H        -0.453154        -1.079634         0.614911
 H         2.081019         1.957547        -0.703297
 H         2.206744         1.923305         0.978925
 H         4.242656        -0.981375        -0.270665
 H         1.979446        -1.154677         2.123201
 H         2.372156        -3.049744        -0.138907
 H         0.591401        -2.434014        -0.011114
 H         1.927602        -1.373613        -2.681861
