19
Iteration:  3751
 C        -0.158497        -0.377301         0.471687
 C         1.296195        -0.120269         0.237439
 C         1.928752         1.276813         0.327672
 O         3.364246         1.035755         0.186200
 C         3.331919        -0.379984        -0.043868
 C         2.260411        -1.103777         0.906289
 C         1.920712        -2.146966        -0.308809
 C         2.155159        -0.789219        -0.969862
 O         2.171141        -0.549892        -2.314071
 H        -0.170862        -1.047271         1.345983
 H        -0.725005         0.684795         0.605001
 H        -0.769597        -0.901593        -0.325906
 H         1.623364         1.906925        -0.452127
 H         1.781970         1.695135         1.336927
 H         4.366332        -0.750170        -0.281727
 H         2.364365        -1.281116         1.958476
 H         2.613876        -2.982985        -0.703127
 H         0.901807        -2.535000        -0.301048
 H         2.687825         0.279442        -2.507043
