19
Iteration:  4979charge 0 multiplicity 1
 C        -0.182581        -0.059725         0.424608
 C         1.266227        -0.123396         0.247508
 C         1.850572         1.242657         0.100798
 O         3.230739         1.034282        -0.125125
 C         3.349437        -0.358274        -0.038502
 C         2.252704        -0.990713         0.985178
 C         2.120309        -2.218646         0.010757
 C         2.202096        -0.915615        -0.790122
 O         2.184821        -0.765343        -2.278652
 H        -0.556268        -0.528812         1.343533
 H        -0.472456         1.026964         0.312854
 H        -0.681273        -0.834252        -0.279139
 H         1.377208         1.847506        -0.813558
 H         1.658018         2.016956         0.909139
 H         4.318529        -0.868254         0.075001
 H         2.243081        -1.022140         2.193239
 H         3.096405        -2.712492        -0.078753
 H         1.209567        -2.815496        -0.024160
 H         2.904378        -0.184195        -2.392484
