19
Iteration:  1948
 C        -0.278971        -0.172396         0.079003
 C         1.308532        -0.110580         0.151898
 C         2.019011         1.251312         0.436297
 O         3.455295         1.026868         0.108353
 C         3.394387        -0.377589         0.013198
 C         2.359065        -1.064031         0.908342
 C         2.056176        -2.188045         0.009862
 C         2.141790        -0.889093        -0.931034
 O         1.842678        -0.583550        -2.266140
 H        -0.805809         0.588849         0.829908
 H        -0.411358         0.181754        -0.930245
 H        -0.552192        -1.155295         0.234082
 H         1.686738         2.179499        -0.177394
 H         1.948327         1.476770         1.603489
 H         4.374357        -0.822743        -0.151037
 H         2.505488        -1.036219         1.947705
 H         2.992324        -2.877730        -0.047365
 H         1.188157        -2.812907         0.177346
 H         2.354802        -1.054281        -2.896474
