19
Iteration:  2239charge 0 multiplicity 1
 C        -0.252743        -0.097699         0.373813
 C         1.377528        -0.097547         0.218845
 C         1.945402         1.296547         0.293659
 O         3.363398         1.059293         0.090320
 C         3.276335        -0.405314        -0.046165
 C         2.317985        -1.183406         0.952405
 C         2.038229        -2.179371        -0.051291
 C         2.135042        -0.850780        -0.963715
 O         2.138457        -0.748387        -2.362303
 H        -0.464910         0.168535         1.356242
 H        -0.830447         0.654240        -0.243190
 H        -0.789975        -1.053630         0.068781
 H         1.559054         1.952234        -0.450471
 H         1.797484         1.910640         1.211125
 H         4.340426        -0.666089        -0.073906
 H         2.285159        -1.296781         1.973690
 H         2.755808        -2.961818        -0.260350
 H         1.067792        -2.534162         0.045849
 H         2.257073         0.204879        -2.535687
