19
Iteration:   440
 C        -0.148968         0.112469         0.354793
 C         1.405545        -0.069091         0.196495
 C         2.065457         1.206313         0.192349
 O         3.492497         0.788763         0.129527
 C         3.395438        -0.542083        -0.044579
 C         2.268584        -1.028993         0.947176
 C         1.728933        -2.173328         0.003277
 C         2.052061        -0.878560        -0.970794
 O         2.017216        -0.529548        -2.279367
 H        -0.471066         0.865280         1.066111
 H        -0.539663         0.460224        -0.706402
 H        -0.626239        -0.767963         0.685555
 H         1.852571         1.656730        -0.850396
 H         1.952240         1.932244         1.005858
 H         4.437697        -1.119780        -0.169161
 H         2.372689        -0.996653         2.082217
 H         2.289717        -3.077783        -0.018495
 H         0.643709        -2.388267        -0.053339
 H         2.783915        -1.084917        -2.710978
