19
Iteration:  3022charge 0 multiplicity 1
 C        -0.247235        -0.071365         0.205158
 C         1.322873        -0.172693         0.273744
 C         1.842612         1.209359         0.279348
 O         3.374579         0.991987         0.073344
 C         3.353492        -0.384324        -0.025077
 C         2.349361        -1.093369         1.010536
 C         2.193344        -2.178124        -0.066922
 C         2.127419        -0.932890        -0.879073
 O         1.970073        -0.586013        -2.310664
 H        -0.681528         0.640534         0.919205
 H        -0.362098         0.362824        -0.693367
 H        -0.675454        -1.113546         0.236467
 H         1.416660         1.863908        -0.488357
 H         1.609388         1.931031         1.217321
 H         4.332074        -0.774810        -0.072328
 H         2.584263        -1.122087         1.993888
 H         3.064387        -2.936850        -0.283119
 H         1.320727        -2.779954        -0.070023
 H         2.624091         0.059115        -2.458062
