19
Iteration:  3334charge 0 multiplicity 1
 C        -0.114667        -0.262246         0.197930
 C         1.381595        -0.084923         0.235109
 C         1.931337         1.313180         0.230954
 O         3.335260         1.009169         0.173466
 C         3.337293        -0.367602         0.045761
 C         2.366127        -1.103578         0.969272
 C         2.114404        -2.066969        -0.126450
 C         2.143855        -0.829833        -0.900012
 O         1.853007        -0.716706        -2.253227
 H        -0.591100        -0.599035         1.078975
 H        -0.491981         0.746145        -0.213161
 H        -0.358175        -0.899988        -0.607542
 H         1.624338         1.840536        -0.626083
 H         1.785367         1.861627         1.106195
 H         4.322535        -0.760834         0.031168
 H         2.296617        -1.275810         2.103923
 H         2.887072        -2.853642        -0.435328
 H         1.123903        -2.520260        -0.145150
 H         2.517652        -0.245421        -2.762769
