19
Iteration:  1407charge 0 multiplicity 1
 C        -0.114354        -0.061828         0.098964
 C         1.393620        -0.035534         0.197318
 C         2.105113         1.338914         0.391763
 O         3.487657         0.950934         0.210757
 C         3.376952        -0.451066        -0.016116
 C         2.301775        -1.034816         0.987456
 C         1.970823        -2.123577        -0.061324
 C         2.060124        -0.855868        -0.939575
 O         1.749891        -0.774740        -2.338171
 H        -0.336259         0.273905         1.128655
 H        -0.554908         0.471064        -0.644698
 H        -0.446688        -1.095002        -0.188319
 H         1.791462         2.076010        -0.377478
 H         1.865672         1.559128         1.425016
 H         4.262089        -1.088674        -0.309956
 H         2.399497        -1.145877         2.084793
 H         2.681000        -2.895920        -0.056173
 H         0.968834        -2.495656         0.017377
 H         2.488446        -0.643485        -2.863142
