19
Iteration:  1866
 C        -0.078039        -0.162985         0.499746
 C         1.305947        -0.047658         0.105025
 C         1.952999         1.316452         0.247858
 O         3.363438         0.976185         0.170320
 C         3.299976        -0.471296        -0.009047
 C         2.143825        -0.982035         0.903586
 C         1.991321        -2.105851        -0.108957
 C         2.089662        -0.879172        -0.964940
 O         2.255553        -0.754956        -2.376439
 H        -0.172604        -0.162112         1.558463
 H        -0.846669         0.601380         0.021350
 H        -0.521321        -1.294693         0.235949
 H         1.656138         2.052587        -0.570557
 H         1.806474         1.732217         1.252546
 H         4.315164        -0.940334        -0.064316
 H         2.064744        -0.948269         2.123888
 H         2.840767        -2.907359        -0.347087
 H         0.889509        -2.474649        -0.120806
 H         1.659892        -0.062000        -2.800225
