19
Iteration:    13
 C        -0.110327         0.177138         0.174170
 C         1.360618        -0.007737         0.324300
 C         2.176423         1.259464         0.263877
 O         3.545636         0.836716         0.055672
 C         3.312171        -0.526678        -0.036809
 C         2.204333        -1.155276         0.948761
 C         1.798263        -2.178354        -0.118438
 C         2.104020        -0.860436        -0.839234
 O         1.907392        -0.593304        -2.177346
 H        -0.542512         0.719981         1.004066
 H        -0.409368         0.615826        -0.809754
 H        -0.522632        -0.783794         0.220588
 H         1.802635         1.572653        -0.797376
 H         2.230198         2.037551         0.966674
 H         4.255299        -1.030655        -0.351116
 H         2.446205        -1.324925         1.937824
 H         2.462674        -3.004672        -0.014252
 H         0.798913        -2.500845        -0.052649
 H         2.139097        -1.541069        -2.671848
