19
Iteration:  2820charge 0 multiplicity 1
 C        -0.266234        -0.089763         0.128253
 C         1.273158        -0.143028         0.239100
 C         1.918788         1.229263         0.260677
 O         3.393210         1.006386         0.194285
 C         3.376442        -0.374333         0.064896
 C         2.425451        -1.072698         0.943921
 C         2.199873        -2.136953        -0.218531
 C         2.129922        -0.800835        -0.851283
 O         1.855451        -0.692372        -2.206584
 H        -0.541144         0.510208         0.946667
 H        -0.516074         0.375874        -0.835056
 H        -0.664510        -1.023962         0.220947
 H         1.632786         1.802281        -0.616944
 H         1.809803         1.849626         1.194057
 H         4.393484        -0.680825        -0.139726
 H         2.598764        -1.202996         2.056970
 H         2.920830        -2.832978        -0.551332
 H         1.286278        -2.749970        -0.057244
 H         2.459270        -1.258385        -2.739758
