19
Iteration:  4339
 C        -0.154946        -0.329455         0.317486
 C         1.293835        -0.053211         0.193040
 C         1.892247         1.306361         0.290051
 O         3.387014         1.062514         0.103119
 C         3.406652        -0.364234         0.014831
 C         2.347606        -1.056535         0.908974
 C         2.008289        -2.185310        -0.075070
 C         2.148405        -0.804269        -0.906911
 O         1.984197        -0.662735        -2.304781
 H        -0.438564        -0.714209         1.220319
 H        -0.819640         0.456211        -0.097609
 H        -0.494575        -1.035070        -0.443999
 H         1.559951         2.039221        -0.445400
 H         1.826816         1.739050         1.325939
 H         4.364217        -0.748055        -0.174585
 H         2.450579        -1.156835         2.111845
 H         2.656319        -3.136825        -0.288904
 H         0.941079        -2.605801        -0.027328
 H         2.762113        -0.238775        -2.785569
