19
Iteration:  3403charge 0 multiplicity 1
 C        -0.171438        -0.270372         0.416381
 C         1.330945        -0.084854         0.273537
 C         1.947311         1.368515         0.288821
 O         3.308712         1.045675         0.044798
 C         3.319182        -0.355334        -0.006664
 C         2.268083        -1.027241         0.928970
 C         1.973021        -2.140306        -0.171303
 C         2.190179        -0.855638        -0.962396
 O         2.127549        -0.725648        -2.315055
 H        -0.478469        -0.974153         1.265269
 H        -0.754414         0.606339         0.394247
 H        -0.674817        -0.869437        -0.480223
 H         1.577376         2.040596        -0.413803
 H         1.858413         1.769547         1.339064
 H         4.400858        -0.819104         0.017168
 H         2.234311        -1.212123         1.977450
 H         2.688606        -3.037093        -0.175840
 H         0.992114        -2.576844        -0.023834
 H         2.942282        -0.509745        -2.713212
