19
Iteration:  1897charge 0 multiplicity 1
 C        -0.301845        -0.138149         0.370290
 C         1.313538        -0.079422         0.247855
 C         1.973127         1.310512         0.124166
 O         3.381265         1.030845         0.191458
 C         3.395482        -0.418611         0.011612
 C         2.354442        -1.133355         0.973066
 C         2.003218        -2.182360        -0.149316
 C         2.154480        -0.894855        -0.874445
 O         2.068775        -0.685166        -2.329626
 H        -0.438647         0.219906         1.333403
 H        -0.678342         0.509147        -0.475562
 H        -0.654480        -1.167780         0.128096
 H         1.632604         1.774934        -0.787661
 H         1.794175         2.067800         0.818999
 H         4.433133        -0.792735        -0.095894
 H         2.430477        -1.374724         2.114266
 H         2.459841        -3.066853        -0.491083
 H         0.914063        -2.340955        -0.111573
 H         2.255757         0.219819        -2.579360
