19
Iteration:  3158
 C        -0.176290        -0.119557         0.151994
 C         1.293619        -0.181251         0.213135
 C         1.917715         1.271400         0.257064
 O         3.382728         1.043415         0.156422
 C         3.302508        -0.326763        -0.095458
 C         2.367698        -1.067174         0.959533
 C         2.172478        -2.219258        -0.037732
 C         2.110385        -0.936031        -0.881031
 O         1.946166        -0.643256        -2.237204
 H        -0.638306         0.022841         1.056810
 H        -0.562440         0.682146        -0.532684
 H        -0.604425        -0.980762        -0.144629
 H         1.487304         1.957601        -0.347325
 H         1.566890         1.741086         1.239157
 H         4.340380        -0.703550        -0.299519
 H         2.459667        -1.384621         2.094063
 H         3.003624        -2.831808        -0.072438
 H         1.250832        -2.840593         0.097198
 H         2.628022         0.026620        -2.530621
