19
Iteration:   549charge 0 multiplicity 1
 C        -0.191814         0.143868         0.182247
 C         1.350954         0.034493         0.287179
 C         2.188855         1.337195         0.478690
 O         3.487204         0.910414         0.052242
 C         3.399173        -0.499722        -0.038385
 C         2.195262        -1.084137         0.973223
 C         1.911947        -2.175320        -0.093235
 C         2.189719        -0.852567        -0.930040
 O         1.885350        -0.940287        -2.339254
 H        -0.819669         0.295819         1.044070
 H        -0.465632         1.166776        -0.357408
 H        -0.533578        -0.659973        -0.437437
 H         1.753458         2.078691        -0.194562
 H         2.194532         1.702035         1.460809
 H         4.389645        -1.093775        -0.294684
 H         2.247531        -1.146102         2.086366
 H         2.597587        -2.999121        -0.352335
 H         0.837179        -2.523288        -0.109331
 H         1.370373        -0.054890        -2.493485
