19
Iteration:   501charge 0 multiplicity 1
 C        -0.232139         0.047119         0.349836
 C         1.320565         0.013091         0.186460
 C         2.149561         1.393483         0.277143
 O         3.572408         0.797041         0.153496
 C         3.323280        -0.546756        -0.095250
 C         2.185282        -1.022195         0.954789
 C         1.850624        -2.132865        -0.027449
 C         2.127270        -0.888984        -0.931805
 O         2.061193        -0.755274        -2.381371
 H        -0.452829         0.494839         1.348437
 H        -0.767728         0.703417        -0.326319
 H        -0.688263        -0.969196         0.243210
 H         1.864764         2.025817        -0.567760
 H         2.028562         1.990199         1.236700
 H         4.285625        -1.077940        -0.140078
 H         2.385539        -1.137761         2.032570
 H         2.626888        -2.936671         0.076888
 H         0.802326        -2.502230        -0.137769
 H         1.151867        -0.473894        -2.613359
