19
Iteration:  3099
 C        -0.210856        -0.276654         0.363516
 C         1.270667        -0.035524         0.160662
 C         1.901640         1.396745         0.349494
 O         3.395696         1.056559         0.181881
 C         3.348325        -0.378482        -0.059570
 C         2.286521        -0.994799         0.923296
 C         1.976857        -2.151043        -0.176030
 C         2.152866        -0.827805        -0.940741
 O         2.158928        -0.852799        -2.312588
 H        -0.464311         0.121082         1.384153
 H        -0.864944         0.147599        -0.322020
 H        -0.315809        -1.404183         0.344543
 H         1.662171         2.079108        -0.481742
 H         1.808855         1.642837         1.450564
 H         4.316538        -0.818513        -0.307592
 H         2.303630        -1.071388         1.941961
 H         2.810454        -2.971545        -0.265135
 H         0.944683        -2.580560        -0.140039
 H         2.270314        -0.044717        -2.885202
