19
Iteration:  1159charge 0 multiplicity 1
 C        -0.275884        -0.062998         0.552670
 C         1.253878         0.053284         0.231844
 C         2.157903         1.327420         0.204511
 O         3.511015         0.857213         0.040810
 C         3.274787        -0.575642        -0.020614
 C         2.152592        -1.027772         0.896652
 C         1.812251        -2.189519        -0.160317
 C         2.106609        -0.841658        -0.971197
 O         2.296821        -0.625246        -2.310705
 H        -0.866146         0.863200         0.606775
 H        -0.787316        -0.942567        -0.044269
 H        -0.139114        -0.277632         1.580613
 H         1.793808         2.015641        -0.629940
 H         2.006041         1.917512         1.140016
 H         4.165353        -1.194754         0.154918
 H         2.267721        -1.088020         2.004025
 H         2.668077        -2.910117        -0.403021
 H         0.798195        -2.676380        -0.153559
 H         1.451785        -0.467176        -2.672284
