19
Iteration:  4411
 C        -0.163511        -0.111904         0.268123
 C         1.390631        -0.123082         0.207994
 C         1.855764         1.264875         0.287825
 O         3.342936         1.049712         0.122685
 C         3.346329        -0.314724         0.003307
 C         2.347335        -1.083352         0.940051
 C         2.169058        -2.179791        -0.109537
 C         2.139037        -0.864293        -0.871289
 O         1.968540        -0.816820        -2.303355
 H        -0.676301        -1.137117         0.140431
 H        -0.632451         0.563179         0.952793
 H        -0.529201         0.495180        -0.552051
 H         1.599795         1.998348        -0.490709
 H         1.570425         1.667523         1.231140
 H         4.353827        -0.759893        -0.078296
 H         2.380472        -0.988006         1.956155
 H         2.985799        -2.827677        -0.182695
 H         1.283629        -2.726117        -0.143525
 H         1.721782         0.076240        -2.581945
