19
Iteration:    87
 C        -0.138909         0.096354         0.305323
 C         1.348464         0.087372         0.166855
 C         2.192543         1.325852         0.327813
 O         3.539281         0.851537         0.138569
 C         3.284772        -0.593775         0.057166
 C         2.241285        -1.078852         0.911665
 C         1.832198        -2.072870        -0.157608
 C         2.057651        -0.815969        -0.925040
 O         1.932055        -0.870848        -2.327404
 H        -0.431926         0.578382         1.273778
 H        -0.763435         0.453294        -0.515403
 H        -0.427425        -1.020933         0.527724
 H         2.019678         2.003857        -0.499365
 H         2.135520         1.831922         1.331691
 H         4.223259        -1.114748         0.021117
 H         2.308148        -1.213736         1.968832
 H         2.446345        -2.934346        -0.436242
 H         0.793912        -2.419643        -0.038823
 H         2.393495        -0.093448        -2.772210
