19
Iteration:  2592charge 0 multiplicity 1
 C        -0.295162        -0.073931         0.297706
 C         1.343706        -0.136275         0.226457
 C         1.878004         1.316161         0.348213
 O         3.409090         1.053176         0.135356
 C         3.389715        -0.358017        -0.132609
 C         2.232395        -1.128560         0.960925
 C         2.158744        -2.226329        -0.139357
 C         2.128066        -0.857536        -0.848938
 O         2.046644        -0.648807        -2.305623
 H        -0.610847         0.639058         1.149220
 H        -0.519238         0.208988        -0.708585
 H        -0.833914        -0.940591         0.345972
 H         1.525100         1.907114        -0.503523
 H         1.749061         1.653504         1.394818
 H         4.394327        -0.707705        -0.226150
 H         2.371256        -1.288873         2.022604
 H         3.065452        -2.739739        -0.201560
 H         1.329370        -2.928367        -0.189267
 H         2.266528        -1.541446        -2.829631
