19
Iteration:  3137charge 0 multiplicity 1
 C        -0.286465        -0.035751         0.230706
 C         1.323635        -0.121671         0.180103
 C         1.855228         1.235617         0.350554
 O         3.292489         1.002756         0.083740
 C         3.384865        -0.427094         0.030965
 C         2.366668        -1.049227         0.966825
 C         2.236636        -2.231775        -0.124926
 C         2.212234        -0.824659        -0.887406
 O         1.967623        -0.743248        -2.306985
 H        -0.665153         0.227530         1.191243
 H        -0.551614         0.857710        -0.451052
 H        -0.826601        -0.871195        -0.118236
 H         1.437445         1.948836        -0.326108
 H         1.521016         1.742292         1.256204
 H         4.426021        -0.723863        -0.162177
 H         2.635664        -1.097063         2.137122
 H         3.012124        -2.896316        -0.284004
 H         1.300523        -2.738281         0.015550
 H         2.486444        -0.006579        -2.573932
