19
Iteration:   421
 C        -0.174535         0.073037         0.267021
 C         1.390164         0.038866         0.124485
 C         2.243290         1.386828         0.272097
 O         3.528945         0.848511         0.106779
 C         3.251644        -0.583221        -0.007599
 C         2.223158        -1.106464         0.978823
 C         1.815431        -2.146225        -0.047536
 C         2.079275        -0.878142        -0.898296
 O         1.924035        -0.708210        -2.303792
 H        -0.485753         0.670073         1.138884
 H        -0.651041         0.329318        -0.651615
 H        -0.618805        -0.983777         0.457185
 H         1.959467         2.208090        -0.454768
 H         2.014524         1.703709         1.379075
 H         4.108873        -1.222028        -0.169668
 H         2.357923        -1.292904         2.061237
 H         2.520524        -2.951819        -0.292820
 H         0.845096        -2.583701         0.112482
 H         2.813929        -0.392450        -2.622687
