19
Iteration:  4836
 C        -0.271905        -0.245327         0.411048
 C         1.296773        -0.027188         0.178957
 C         1.923719         1.313567         0.056856
 O         3.307113         1.088986        -0.107215
 C         3.385053        -0.394885         0.005469
 C         2.278176        -0.942523         1.021389
 C         1.977990        -2.114260         0.080354
 C         2.215770        -0.856959        -0.879523
 O         2.170866        -0.918379        -2.248583
 H        -0.628316        -1.131603        -0.130445
 H        -0.453710        -0.456424         1.509681
 H        -0.922369         0.662832         0.141062
 H         1.635828         1.921028        -0.800879
 H         1.852603         1.936924         0.968082
 H         4.408866        -0.924862        -0.048889
 H         2.332005        -0.976959         2.146210
 H         2.840635        -2.684252         0.041763
 H         0.982163        -2.501356         0.080172
 H         2.692497        -0.219208        -2.640108
