19
Iteration:  4772
 C        -0.260741        -0.117435         0.314093
 C         1.279873        -0.111982         0.273804
 C         1.931582         1.341659         0.039080
 O         3.331177         1.114910        -0.003231
 C         3.313501        -0.385670         0.039070
 C         2.328302        -0.943802         1.024477
 C         2.139124        -2.168568         0.020206
 C         2.191556        -0.900334        -0.884929
 O         2.026325        -0.952899        -2.232205
 H        -0.700841        -0.935262        -0.156945
 H        -0.647716         0.172619         1.283536
 H        -0.528365         0.723607        -0.350602
 H         1.509971         1.839515        -0.791131
 H         1.577218         1.842588         0.939449
 H         4.372449        -0.657355        -0.066788
 H         2.622866        -0.922381         2.134412
 H         3.127407        -2.876982        -0.206826
 H         1.221816        -2.797075        -0.070761
 H         2.696197        -0.405603        -2.777320
