19
Iteration:  1207
 C        -0.161159         0.005708         0.225290
 C         1.315890        -0.054636         0.266765
 C         2.107445         1.341249         0.299318
 O         3.464391         0.891152         0.128986
 C         3.351160        -0.519209        -0.035782
 C         2.357585        -1.119096         0.964229
 C         1.846656        -2.152596        -0.097077
 C         2.100925        -0.889470        -0.911752
 O         1.963215        -0.711471        -2.279680
 H        -0.429435         1.049697         0.218401
 H        -0.404313        -0.364997        -0.801012
 H        -0.753031        -0.479235         1.050946
 H         1.897290         1.992690        -0.596978
 H         1.881352         1.981227         1.144189
 H         4.316281        -0.878065        -0.353564
 H         2.437569        -1.286244         2.030239
 H         2.484506        -3.013973        -0.229335
 H         0.783692        -2.394837        -0.042120
 H         1.980238         0.311420        -2.460803
