19
Iteration:  3633
 C        -0.216486        -0.308369         0.330536
 C         1.358386        -0.093867         0.123837
 C         1.932496         1.342844         0.402241
 O         3.373767         0.979579         0.194288
 C         3.401893        -0.436091         0.035794
 C         2.266586        -1.059670         0.893363
 C         2.055478        -2.088891        -0.170501
 C         2.197939        -0.734605        -0.918833
 O         1.970784        -0.695002        -2.364917
 H        -0.659955        -0.196675        -0.622106
 H        -0.323176        -1.217128         0.699776
 H        -0.574439         0.330347         1.167734
 H         1.704487         2.073478        -0.439111
 H         1.715515         1.546370         1.492976
 H         4.424598        -0.841706        -0.190160
 H         2.364185        -1.369023         1.929161
 H         2.772929        -2.796530        -0.492118
 H         1.084204        -2.552491        -0.392464
 H         2.077223         0.163926        -2.703875
