19
Iteration:  2395charge 0 multiplicity 1
 C        -0.190776        -0.195625         0.374498
 C         1.359238        -0.111783         0.205228
 C         1.963356         1.321376         0.289173
 O         3.305524         1.034344         0.162844
 C         3.329904        -0.364144        -0.037415
 C         2.307284        -1.115149         0.921527
 C         1.943326        -2.142965        -0.131863
 C         2.213345        -0.848129        -0.959760
 O         2.064231        -0.765645        -2.328492
 H        -0.632711         0.809376         0.883927
 H        -0.692664        -0.182616        -0.592033
 H        -0.386095        -1.048028         1.048965
 H         1.719918         1.925622        -0.623052
 H         1.958064         2.103957         1.174952
 H         4.453910        -0.691696        -0.110248
 H         2.427357        -1.239283         2.046967
 H         2.678654        -2.899289        -0.148827
 H         0.910756        -2.539584        -0.352871
 H         2.589747         0.080865        -2.539386
