19
Iteration:  2330
 C        -0.178461        -0.175930         0.205241
 C         1.324285        -0.097060         0.164052
 C         1.948916         1.286100         0.292600
 O         3.402382         1.030371         0.026886
 C         3.422283        -0.372448         0.029991
 C         2.381117        -1.106676         1.008872
 C         1.975036        -2.172835        -0.077340
 C         2.141195        -0.918894        -0.892440
 O         1.942104        -0.638726        -2.242489
 H        -0.710016         0.272137         1.153182
 H        -0.733431         0.319817        -0.569599
 H        -0.325366        -1.217027         0.074814
 H         1.453252         1.959006        -0.407549
 H         1.636508         1.743065         1.284176
 H         4.506707        -0.728784        -0.121440
 H         2.253793        -1.140141         2.140617
 H         2.725722        -2.927463        -0.199099
 H         0.963681        -2.673797        -0.118465
 H         2.600305        -0.031656        -2.484494
