19
Iteration:  4714
 C        -0.202379        -0.279763         0.117143
 C         1.317368        -0.033739         0.192689
 C         1.966245         1.425794         0.246505
 O         3.420825         1.044576         0.025225
 C         3.358109        -0.312887         0.000909
 C         2.355119        -0.935820         0.997428
 C         2.064728        -2.108466         0.088662
 C         2.178356        -0.865950        -0.875059
 O         1.933781        -0.985294        -2.276431
 H        -0.470579        -1.127548         0.858528
 H        -0.916074         0.469939         0.568202
 H        -0.422175        -0.524714        -0.972302
 H         1.628168         2.170120        -0.440795
 H         1.871456         1.807952         1.295955
 H         4.528121        -0.581916        -0.036168
 H         2.346108        -1.027739         2.027645
 H         2.888328        -2.900467        -0.054163
 H         0.978717        -2.539421         0.217226
 H         1.502293        -0.220779        -2.591335
