19
Iteration:  4415charge 0 multiplicity 1
 C        -0.156126        -0.126186         0.278668
 C         1.361217        -0.111421         0.213074
 C         1.892616         1.252105         0.273068
 O         3.338103         1.078044         0.120769
 C         3.347516        -0.331051        -0.017652
 C         2.348832        -1.091867         0.944981
 C         2.129710        -2.162849        -0.100944
 C         2.116519        -0.883396        -0.913448
 O         2.008977        -0.812514        -2.289649
 H        -0.609234        -1.024664         0.101715
 H        -0.611382         0.453401         1.187909
 H        -0.569525         0.544456        -0.548894
 H         1.568990         1.938029        -0.513444
 H         1.469615         1.705465         1.286804
 H         4.330450        -0.713720        -0.049789
 H         2.398079        -1.012356         2.128380
 H         3.136509        -2.781315        -0.194810
 H         1.200218        -2.824546        -0.149235
 H         1.707482         0.063995        -2.603857
