19
Iteration:  2282
 C        -0.212492        -0.121874         0.344887
 C         1.245647        -0.046462         0.142455
 C         2.050922         1.313466         0.327326
 O         3.390840         1.064121         0.250302
 C         3.378343        -0.354129         0.030671
 C         2.244853        -1.059845         0.900924
 C         2.100265        -2.129108        -0.143038
 C         2.153474        -0.809189        -0.946784
 O         1.981123        -0.947237        -2.397024
 H        -0.390959        -0.121301         1.372982
 H        -0.921587         0.732538         0.011030
 H        -0.558943        -1.106120        -0.202537
 H         1.722641         2.112081        -0.371469
 H         1.849680         1.812437         1.336859
 H         4.392752        -0.785814        -0.130433
 H         2.331890        -1.309607         1.915385
 H         2.958258        -2.810131        -0.293040
 H         1.192392        -2.654925        -0.115112
 H         1.994718        -0.110422        -2.976733
