19
Iteration:  3679
 C        -0.237809        -0.235400         0.141007
 C         1.328623        -0.078165         0.209549
 C         1.966420         1.263528         0.490293
 O         3.338497         1.024811         0.235674
 C         3.361383        -0.366989        -0.049384
 C         2.449839        -1.177312         0.931093
 C         2.098135        -2.119690        -0.205357
 C         2.186960        -0.740818        -0.920629
 O         1.868080        -0.710284        -2.310048
 H        -0.392744        -0.893277        -0.705503
 H        -0.567778        -0.510514         1.040607
 H        -0.672093         0.751439        -0.007692
 H         1.631250         2.047018        -0.292058
 H         1.987259         1.560230         1.524672
 H         4.324462        -0.651163        -0.259576
 H         2.572593        -1.320094         2.054754
 H         2.779679        -2.926220        -0.382566
 H         1.035845        -2.578605        -0.133503
 H         2.203284         0.094327        -2.727221
