19
Iteration:  2797
 C        -0.176578        -0.083946         0.175752
 C         1.316662        -0.072863         0.233195
 C         1.947342         1.291356         0.232617
 O         3.323627         1.061772         0.254711
 C         3.315085        -0.349706        -0.071885
 C         2.322125        -1.149291         0.970239
 C         2.224155        -2.281042        -0.069148
 C         2.203842        -0.883190        -0.911500
 O         1.877464        -0.607695        -2.273221
 H        -0.507891         0.437249         0.990769
 H        -0.360506         0.503571        -0.753026
 H        -0.544793        -1.055026         0.108954
 H         1.677500         1.885895        -0.637139
 H         1.682869         1.848443         1.230790
 H         4.330686        -0.648404        -0.135013
 H         2.555170        -1.401909         2.014061
 H         3.007867        -2.965456        -0.145563
 H         1.376160        -2.944311        -0.147469
 H         1.782721        -1.422194        -2.856703
