19
Iteration:  1466charge 0 multiplicity 1
 C        -0.159278        -0.048832         0.242297
 C         1.374732        -0.043094         0.358832
 C         2.043337         1.312495         0.191020
 O         3.367466         0.908946         0.101706
 C         3.362340        -0.526942        -0.012470
 C         2.321370        -1.133134         0.932587
 C         1.903896        -2.152575        -0.183174
 C         2.104774        -0.829106        -0.816699
 O         2.055977        -0.559230        -2.232751
 H        -0.791652         0.872765         0.499498
 H        -0.502608        -0.194079        -0.804810
 H        -0.603694        -0.718839         0.935855
 H         1.622199         1.754964        -0.749962
 H         1.758920         2.093437         0.970205
 H         4.359972        -0.854333        -0.129632
 H         2.611034        -1.354025         1.964784
 H         2.763634        -2.874994        -0.233294
 H         0.906318        -2.661462        -0.197597
 H         1.746820        -1.449928        -2.623695
