19
Iteration:  1169
 C        -0.251593        -0.114000         0.577203
 C         1.334128        -0.008596         0.072472
 C         2.141089         1.331100         0.213460
 O         3.505409         0.810609        -0.001724
 C         3.283989        -0.516964         0.050351
 C         2.093537        -1.033737         0.936857
 C         1.819495        -2.116348        -0.147623
 C         2.131863        -0.864467        -0.931021
 O         2.258786        -0.597672        -2.304364
 H        -0.786746         0.891415         0.505229
 H        -0.944742        -0.783743        -0.066456
 H        -0.410091        -0.484428         1.579479
 H         1.882169         2.064215        -0.596762
 H         2.252810         1.833538         1.207546
 H         4.243040        -1.048267        -0.241414
 H         2.138680        -1.160392         2.043029
 H         2.550715        -2.991229        -0.143673
 H         0.820361        -2.596518         0.011412
 H         1.466386        -0.109812        -2.595207
