19
Iteration:  1014
 C        -0.250861         0.004567         0.436706
 C         1.318853        -0.021807         0.227927
 C         2.100606         1.307917         0.228794
 O         3.472701         0.864888         0.087866
 C         3.270096        -0.598537         0.012392
 C         2.243539        -1.145533         0.930552
 C         1.887850        -2.173431        -0.222753
 C         2.109424        -0.859546        -0.939407
 O         2.109800        -0.572314        -2.254929
 H        -0.857491        -0.206315        -0.544762
 H        -0.538807        -0.707600         1.146495
 H        -0.521265         1.007705         0.897142
 H         1.861690         1.900129        -0.695784
 H         2.108517         1.917581         1.167321
 H         4.205662        -1.127146        -0.298919
 H         2.257023        -1.283496         1.985284
 H         2.696472        -2.912577        -0.329784
 H         0.859148        -2.567704        -0.196121
 H         2.512389         0.276687        -2.472797
