19
Iteration:  3940
 C        -0.204207        -0.131016         0.589341
 C         1.285919        -0.195943         0.265400
 C         1.854713         1.220788         0.465707
 O         3.227569         1.000952         0.206411
 C         3.298186        -0.391620        -0.145604
 C         2.283655        -1.218885         0.897150
 C         2.165445        -2.204836        -0.375724
 C         2.176574        -0.760101        -1.027477
 O         2.214914        -0.532535        -2.380293
 H        -0.510328         0.580132         1.350875
 H        -0.623778         0.260879        -0.396819
 H        -0.935725        -0.906076         0.915273
 H         1.435674         2.071340        -0.377176
 H         1.648116         1.635790         1.470554
 H         4.260783        -0.795282        -0.343693
 H         2.457319        -1.833487         1.823948
 H         3.033223        -2.791431        -0.519450
 H         1.121487        -2.642110        -0.388736
 H         2.764974         0.252828        -2.703909
