19
Iteration:  3109
 C        -0.165099        -0.222614         0.345958
 C         1.322822        -0.064507         0.188513
 C         2.005988         1.340057         0.378665
 O         3.338056         1.102222         0.139819
 C         3.328187        -0.352206        -0.042135
 C         2.188637        -1.068753         0.907174
 C         2.058167        -2.169219        -0.177994
 C         2.144616        -0.816842        -0.909774
 O         2.112938        -0.878424        -2.321493
 H        -0.572603         0.118299         1.367206
 H        -0.635656         0.370694        -0.402221
 H        -0.708823        -1.260582         0.247872
 H         1.470635         2.013620        -0.407748
 H         1.647282         1.900956         1.301998
 H         4.344515        -0.666068        -0.149829
 H         2.323314        -1.071064         1.918265
 H         2.959326        -2.929077        -0.375580
 H         1.086482        -2.696077        -0.193481
 H         2.327699         0.031937        -2.609484
