19
Iteration:    18
 C        -0.116794         0.188660         0.128599
 C         1.384311        -0.023428         0.386610
 C         2.164416         1.278119         0.236423
 O         3.544414         0.857817         0.040772
 C         3.339407        -0.554595        -0.071423
 C         2.210789        -1.162039         0.979622
 C         1.811670        -2.190197        -0.110101
 C         2.093325        -0.845260        -0.819224
 O         1.914112        -0.583783        -2.161696
 H        -0.659052         0.806224         0.875080
 H        -0.265230         0.581253        -0.883044
 H        -0.640452        -0.830525         0.239117
 H         1.783349         1.545965        -0.809624
 H         2.132541         2.084226         1.032214
 H         4.260714        -1.101841        -0.314988
 H         2.435313        -1.522523         2.038141
 H         2.442376        -3.126198        -0.211681
 H         0.746934        -2.564731        -0.134335
 H         1.840776        -1.396959        -2.576018
