19
Iteration:  3831charge 0 multiplicity 1
 C        -0.178875        -0.076374         0.243853
 C         1.360722        -0.228763         0.262480
 C         1.887558         1.204648         0.483585
 O         3.309054         1.012807         0.258074
 C         3.355021        -0.409294         0.030946
 C         2.412203        -1.168172         0.871184
 C         2.203344        -2.173693        -0.322806
 C         2.149258        -0.859859        -0.990347
 O         1.866051        -0.555344        -2.312963
 H        -0.550812         0.939484         0.505895
 H        -0.345355         0.003887        -0.911403
 H        -0.628036        -1.009824         0.724107
 H         1.514143         1.928293        -0.093146
 H         1.812276         1.576017         1.532715
 H         4.373912        -0.630649        -0.158330
 H         2.560348        -1.379741         1.978282
 H         3.012441        -2.801108        -0.551952
 H         1.197749        -2.684026        -0.537599
 H         2.029511         0.420346        -2.475296
