19
Iteration:  3724
 C        -0.226683        -0.206205         0.358198
 C         1.261607        -0.160480         0.244888
 C         1.909891         1.295969         0.341282
 O         3.319664         0.965339         0.173596
 C         3.335732        -0.400820        -0.042692
 C         2.315668        -1.186688         0.920680
 C         2.178523        -2.167367        -0.193569
 C         2.159047        -0.837442        -0.980851
 O         2.031260        -0.496326        -2.323120
 H        -0.605882        -1.144736         0.764375
 H        -0.490689         0.580253         0.928023
 H        -0.814681         0.075129        -0.483058
 H         1.718527         1.988234        -0.580212
 H         1.774057         1.687260         1.343402
 H         4.370284        -0.710606        -0.175694
 H         2.504387        -1.541882         1.975353
 H         3.000986        -2.860791        -0.453827
 H         1.267048        -2.833773        -0.188778
 H         2.505199         0.362635        -2.436843
