19
Iteration:  3499charge 0 multiplicity 1
 C        -0.118962        -0.085342         0.123384
 C         1.387018        -0.106674         0.284251
 C         1.927215         1.294032         0.333879
 O         3.289665         1.036595         0.198564
 C         3.363335        -0.368841        -0.010196
 C         2.325916        -1.083314         0.967576
 C         2.159802        -2.202469        -0.143939
 C         2.193783        -0.833341        -0.918332
 O         1.876637        -0.793100        -2.316854
 H        -0.560214        -0.110296         1.098979
 H        -0.515515         0.710806        -0.458723
 H        -0.555890        -1.033266        -0.204269
 H         1.487450         2.010170        -0.510113
 H         1.723251         1.715195         1.388509
 H         4.482544        -0.611671        -0.108217
 H         2.535942        -1.244865         2.019496
 H         3.056689        -2.885159        -0.329336
 H         1.275090        -2.755841        -0.009304
 H         1.604147         0.084614        -2.555249
