19
Iteration:  1774charge 0 multiplicity 1
 C        -0.231262        -0.198149         0.105479
 C         1.344082        -0.115390         0.160818
 C         2.080961         1.306292         0.215981
 O         3.508196         1.000250         0.204053
 C         3.413350        -0.461854         0.058068
 C         2.218676        -1.061862         0.958528
 C         2.095433        -2.137063        -0.104344
 C         2.138218        -0.827241        -0.897534
 O         1.742205        -0.581020        -2.179232
 H        -0.616644         0.563233         0.919732
 H        -0.471222         0.020379        -0.959654
 H        -0.434278        -1.183728         0.456882
 H         1.900710         1.897791        -0.685437
 H         1.863429         1.693678         1.201552
 H         4.380360        -0.990520         0.000529
 H         2.240939        -1.140824         1.998993
 H         2.919114        -2.818419        -0.224972
 H         1.126734        -2.589360        -0.223312
 H         2.418215        -1.059417        -2.760378
