19
Iteration:  3782charge 0 multiplicity 1
 C        -0.175152        -0.327142         0.455492
 C         1.272237        -0.059920         0.267616
 C         1.919687         1.252971         0.455446
 O         3.328117         1.001297         0.196923
 C         3.322492        -0.427258        -0.031832
 C         2.267893        -1.075041         0.898336
 C         1.962931        -2.143539        -0.336763
 C         2.190142        -0.779248        -1.017421
 O         2.149822        -0.603892        -2.410235
 H        -0.351469        -0.216339         1.540940
 H        -0.783080         0.428777         0.065803
 H        -0.298591        -1.342748         0.208655
 H         1.605434         2.130427        -0.186309
 H         1.822414         1.705928         1.414382
 H         4.424750        -0.758200        -0.120032
 H         2.470877        -1.203441         1.931224
 H         2.798254        -2.894987        -0.688587
 H         0.971125        -2.532594        -0.278281
 H         2.621492         0.183988        -2.694190
