19
Iteration:   866charge 0 multiplicity 1
 C        -0.071536        -0.015798         0.178072
 C         1.393958        -0.042495         0.314808
 C         2.062269         1.340095         0.211321
 O         3.443981         0.892867         0.185563
 C         3.303623        -0.553234        -0.054935
 C         2.346635        -1.156877         0.935766
 C         1.837456        -2.128555        -0.074396
 C         2.069177        -0.805126        -0.862483
 O         1.936357        -0.709584        -2.261777
 H        -0.553199         0.542744         0.950928
 H        -0.210670         0.443832        -0.924518
 H        -0.415235        -1.052321         0.103829
 H         1.723874         1.961279        -0.610851
 H         2.010943         2.015626         1.100660
 H         4.322514        -0.956456        -0.192740
 H         2.529249        -1.242104         2.020124
 H         2.671156        -2.844829        -0.295505
 H         0.819541        -2.523063        -0.069316
 H         1.771249         0.205244        -2.556128
