19
Iteration:  4126charge 0 multiplicity 1
 C        -0.198382        -0.379139         0.533761
 C         1.270962        -0.077260         0.191001
 C         1.909374         1.335358         0.391060
 O         3.312617         1.003679         0.116778
 C         3.328496        -0.400868        -0.016233
 C         2.224009        -1.027683         0.868741
 C         1.998719        -2.089640        -0.255303
 C         2.213344        -0.802090        -0.986769
 O         2.211972        -0.673976        -2.381134
 H        -0.785255        -0.788743        -0.300995
 H        -0.085276        -1.043348         1.490891
 H        -0.672934         0.600071         0.953289
 H         1.736253         1.949410        -0.416612
 H         1.679606         1.854393         1.325815
 H         4.235414        -1.070379        -0.058889
 H         2.304332        -1.143712         1.928622
 H         2.750062        -2.959691        -0.407409
 H         0.879070        -2.452144        -0.408559
 H         2.662746         0.225252        -2.523931
