19
Iteration:  1348
 C        -0.163079         0.045032         0.550898
 C         1.290935        -0.053489         0.106755
 C         1.980513         1.294684         0.165192
 O         3.443464         0.910907         0.060351
 C         3.337734        -0.521860         0.011433
 C         2.150928        -1.015735         0.911675
 C         1.932397        -2.237450        -0.059554
 C         2.120259        -0.927068        -1.002113
 O         2.231555        -0.678635        -2.335989
 H        -0.286234        -0.302907         1.498562
 H        -0.569371         1.115796         0.557687
 H        -0.823358        -0.658621         0.122982
 H         1.852930         2.149942        -0.478989
 H         1.915584         1.781261         1.128964
 H         4.283082        -1.097660        -0.025738
 H         1.949061        -0.972278         1.984664
 H         2.553335        -3.169908        -0.062490
 H         0.894150        -2.565002         0.180651
 H         1.700912         0.133918        -2.644847
