19
Iteration:  3375charge 0 multiplicity 1
 C        -0.248626        -0.122734         0.310512
 C         1.260836        -0.162179         0.162468
 C         1.908389         1.305560         0.257046
 O         3.325430         0.994364         0.141892
 C         3.302457        -0.398983        -0.062117
 C         2.364745        -1.032359         0.936313
 C         2.194857        -2.219849        -0.082248
 C         2.143075        -0.867374        -0.930303
 O         2.042290        -0.652854        -2.283488
 H        -0.683729        -0.471791         1.247397
 H        -0.692699         0.952786         0.430995
 H        -0.765749        -0.579951        -0.466731
 H         1.595911         2.127624        -0.512866
 H         1.671452         1.630733         1.318396
 H         4.267855        -0.814624        -0.312883
 H         2.446882        -1.155422         2.057730
 H         3.080991        -2.815302        -0.074711
 H         1.257331        -2.827185         0.189807
 H         2.880323        -0.388765        -2.639761
