19
Iteration:   452charge 0 multiplicity 1
 C        -0.153466         0.138738         0.415247
 C         1.346018        -0.073416         0.226816
 C         2.146214         1.231937         0.050068
 O         3.447276         0.861910         0.121362
 C         3.310772        -0.597405        -0.033791
 C         2.250791        -1.115908         0.951027
 C         1.736585        -2.178056        -0.054082
 C         2.199724        -0.945288        -0.887223
 O         2.064201        -0.469473        -2.245511
 H        -0.369397         0.945361         1.107951
 H        -0.629925         0.354083        -0.611026
 H        -0.687251        -0.774373         0.675452
 H         1.806795         1.704929        -0.951965
 H         1.839799         1.985281         0.845588
 H         4.367940        -1.043583        -0.093065
 H         2.369993        -1.185279         2.067215
 H         2.267886        -3.097485        -0.148272
 H         0.664488        -2.334473         0.047893
 H         2.208000        -1.210461        -2.889628
