19
Iteration:  3059charge 0 multiplicity 1
 C        -0.145026        -0.199384         0.388489
 C         1.304764        -0.059101         0.196159
 C         1.871807         1.337266         0.222087
 O         3.388739         1.049114         0.144153
 C         3.310798        -0.360465        -0.006063
 C         2.248613        -1.099353         0.913847
 C         2.044662        -2.215701        -0.143330
 C         2.191259        -0.872589        -0.932811
 O         2.096944        -0.729500        -2.308420
 H        -0.506200         0.390991         1.212382
 H        -0.823239        -0.022680        -0.561108
 H        -0.452106        -1.153484         0.694690
 H         1.485574         1.963815        -0.707276
 H         1.702705         1.825675         1.233390
 H         4.362329        -0.819245        -0.081091
 H         2.204373        -1.147239         2.110743
 H         2.844596        -2.821615        -0.244514
 H         1.019152        -2.693156        -0.285246
 H         2.526905         0.141910        -2.331262
