19
Iteration:  3247charge 0 multiplicity 1
 C        -0.317353        -0.028614         0.418645
 C         1.308714        -0.168053         0.246117
 C         1.867386         1.216246         0.295873
 O         3.303074         1.051099         0.117129
 C         3.344456        -0.358429        -0.057536
 C         2.360504        -1.130737         0.942859
 C         2.112180        -2.216249        -0.195651
 C         2.170209        -0.820703        -0.956484
 O         2.159893        -0.734930        -2.331546
 H        -0.500928         0.706315         1.140119
 H        -0.851095         0.198370        -0.505616
 H        -0.834272        -0.810517         0.901191
 H         1.379068         1.822009        -0.446539
 H         1.642974         1.850180         1.356281
 H         4.347399        -0.689878        -0.176141
 H         2.424114        -1.292932         2.091429
 H         2.975910        -2.883421        -0.359093
 H         1.245681        -2.835670        -0.197512
 H         2.666802         0.098635        -2.628102
