19
Iteration:  3538
 C        -0.157575        -0.371016         0.272995
 C         1.266819        -0.015496         0.181385
 C         1.988859         1.318575         0.360774
 O         3.351370         0.998863         0.131443
 C         3.361278        -0.417316         0.037751
 C         2.337045        -1.010102         0.954135
 C         2.036225        -2.084639        -0.170350
 C         2.137008        -0.776573        -0.913764
 O         1.965926        -0.707742        -2.330609
 H        -0.640548         0.450950         0.887398
 H        -0.625267        -0.398867        -0.809631
 H        -0.226919        -1.396982         0.623888
 H         1.671662         2.049862        -0.302892
 H         1.993340         1.619392         1.365532
 H         4.289220        -0.832215        -0.084260
 H         2.476641        -1.138953         2.064212
 H         2.701548        -2.856706        -0.480242
 H         1.019357        -2.599601         0.004890
 H         2.676527        -0.123290        -2.681732
