19
Iteration:   753
 C        -0.086912        -0.081652         0.291936
 C         1.386703        -0.012613         0.136222
 C         2.102845         1.347716         0.167272
 O         3.516359         0.904691         0.089339
 C         3.335699        -0.521780         0.062159
 C         2.182318        -1.105278         0.974725
 C         1.903998        -2.156590        -0.045114
 C         2.071431        -0.901425        -0.925732
 O         1.925392        -0.641671        -2.256789
 H        -0.301172        -0.190632         1.398913
 H        -0.668482         0.917011         0.102197
 H        -0.546489        -0.786759        -0.386446
 H         1.745090         2.008978        -0.646196
 H         2.025425         1.885184         1.125791
 H         4.133813        -1.242262        -0.155517
 H         2.145365        -1.217369         2.052897
 H         2.665394        -2.972437        -0.194588
 H         0.886552        -2.654322        -0.086046
 H         2.151287         0.366606        -2.394967
