19
Iteration:   472
 C        -0.134540         0.092382         0.420835
 C         1.376273         0.000040         0.146753
 C         2.087650         1.377056         0.041412
 O         3.535993         0.788574         0.067210
 C         3.329395        -0.562091         0.123210
 C         2.193725        -1.151352         0.990904
 C         1.834781        -2.194579        -0.162756
 C         2.000971        -0.838461        -0.855909
 O         2.106548        -0.559051        -2.222485
 H        -0.279378         0.761424         1.266981
 H        -0.837634         0.376615        -0.492707
 H        -0.543757        -0.847071         0.636522
 H         1.852243         1.758183        -0.969491
 H         1.904375         2.127454         0.749845
 H         4.338984        -1.204113        -0.019558
 H         2.125819        -1.401912         2.104828
 H         2.638943        -2.915337        -0.318623
 H         0.848728        -2.745308        -0.247480
 H         1.477721        -1.106636        -2.599706
