19
Iteration:  1487charge 0 multiplicity 1
 C        -0.162843        -0.089940         0.454040
 C         1.309681        -0.082426         0.183363
 C         2.006741         1.311575         0.184613
 O         3.437485         0.936710         0.177262
 C         3.340333        -0.438574        -0.048240
 C         2.236107        -1.092048         0.966581
 C         1.889213        -2.172977        -0.105474
 C         2.149600        -0.909070        -0.946256
 O         2.176319        -0.593699        -2.337705
 H        -0.664591         0.913535         0.671641
 H        -0.640365        -0.198086        -0.461269
 H        -0.485103        -0.738132         1.223987
 H         1.741452         1.947050        -0.682209
 H         1.703502         1.994844         1.010666
 H         4.256358        -0.928487        -0.130302
 H         2.328729        -1.126952         2.056754
 H         2.461994        -3.082750        -0.313042
 H         0.833770        -2.479321        -0.163807
 H         1.486309        -0.958873        -2.831225
