19
Iteration:  1551
 C        -0.248139        -0.035800         0.298882
 C         1.349728        -0.076682         0.232965
 C         1.954313         1.306498         0.384495
 O         3.413569         0.968886         0.090121
 C         3.363232        -0.444175        -0.054690
 C         2.347791        -1.102707         0.937692
 C         1.949391        -2.112146        -0.141563
 C         2.159560        -0.833640        -0.915441
 O         2.033018        -0.836664        -2.304710
 H        -0.554313         0.828722         1.035511
 H        -0.555323         0.259741        -0.706526
 H        -0.665384        -1.043963         0.455933
 H         1.633462         2.137041        -0.350183
 H         1.785473         1.868137         1.313803
 H         4.325463        -0.826344        -0.087163
 H         2.558879        -1.276036         1.990419
 H         2.447021        -2.979313        -0.490671
 H         0.897287        -2.347741        -0.110281
 H         2.528239        -0.014535        -2.450239
