19
Iteration:  1299charge 0 multiplicity 1
 C        -0.152096        -0.040083         0.315305
 C         1.382264         0.049467         0.298345
 C         2.076753         1.323901         0.256135
 O         3.448916         0.910189         0.088723
 C         3.306926        -0.483270        -0.054152
 C         2.269738        -1.120740         0.956938
 C         1.807503        -2.142176        -0.107790
 C         2.086883        -0.848511        -0.875156
 O         2.109673        -0.662661        -2.301110
 H        -0.718416         0.057358         1.358359
 H        -0.553223         0.701976        -0.322316
 H        -0.441002        -1.094746         0.022702
 H         1.811946         1.847273        -0.680563
 H         1.959611         2.135860         1.007405
 H         4.242091        -1.042978        -0.314799
 H         2.532151        -1.403438         1.999266
 H         2.595437        -2.918761        -0.245449
 H         0.809750        -2.606966        -0.175241
 H         1.551243        -1.343895        -2.647126
