19
Iteration:  2588
 C        -0.252484        -0.042282         0.356560
 C         1.309516        -0.120573         0.238329
 C         1.891659         1.298567         0.337497
 O         3.367143         1.022665         0.144123
 C         3.385325        -0.344195        -0.097852
 C         2.245199        -1.100720         0.954414
 C         2.177767        -2.220761        -0.159338
 C         2.120209        -0.876429        -0.887924
 O         2.064524        -0.677598        -2.308878
 H        -0.765951         0.635423         1.001706
 H        -0.552932         0.328394        -0.733358
 H        -0.815476        -1.082227         0.336803
 H         1.521457         2.021214        -0.482221
 H         1.635831         1.744505         1.304256
 H         4.456493        -0.789029        -0.249340
 H         2.471121        -1.271731         2.018339
 H         3.140896        -2.863035        -0.269753
 H         1.219006        -2.854291        -0.227087
 H         2.311520        -1.358201        -2.881954
