19
Iteration:   488
 C        -0.186032         0.055802         0.403298
 C         1.313908         0.066248         0.233790
 C         2.215698         1.269679         0.124132
 O         3.515998         0.832065         0.108833
 C         3.274549        -0.580241         0.013216
 C         2.091014        -1.017149         0.966255
 C         1.925128        -2.144613        -0.147228
 C         2.099456        -0.865145        -0.933179
 O         2.083527        -0.680507        -2.268411
 H        -0.509169         0.530856         1.362371
 H        -0.612179         0.532988        -0.400635
 H        -0.584042        -1.041576         0.546800
 H         2.075639         1.882460        -0.816379
 H         2.185096         1.982002         1.081189
 H         4.108908        -1.154066        -0.049639
 H         2.152019        -1.124815         2.035038
 H         2.713561        -2.916182        -0.330818
 H         0.978086        -2.647878        -0.146708
 H         1.159145        -0.736805        -2.576035
