19
Iteration:  2559charge 0 multiplicity 1
 C        -0.163787        -0.176313         0.389299
 C         1.338117        -0.103267         0.121521
 C         1.866412         1.317746         0.263967
 O         3.342765         1.023102         0.187362
 C         3.425798        -0.373530         0.005517
 C         2.270662        -1.098978         0.957318
 C         2.015504        -2.152346        -0.120913
 C         2.173217        -0.819565        -0.946624
 O         2.045566        -0.692687        -2.368616
 H        -0.390983         0.351429         1.340707
 H        -0.722514         0.479302        -0.247694
 H        -0.586011        -1.121318         0.454461
 H         1.576850         1.982570        -0.545510
 H         1.541690         1.826668         1.180039
 H         4.447566        -0.776009        -0.045397
 H         2.420173        -1.255954         2.025985
 H         2.769739        -2.872279        -0.265537
 H         1.006755        -2.574612        -0.156467
 H         2.665897        -1.297879        -2.808114
