19
Iteration:  2825
 C        -0.222438        -0.111587         0.136355
 C         1.269487        -0.088670         0.221340
 C         1.962457         1.191481         0.271084
 O         3.385419         1.018913         0.184654
 C         3.348356        -0.335531         0.055600
 C         2.408846        -1.058595         0.971024
 C         2.175925        -2.136321        -0.199564
 C         2.139077        -0.807171        -0.890889
 O         1.852911        -0.694287        -2.209659
 H        -0.544850         0.529816         1.056197
 H        -0.492134         0.291994        -0.848954
 H        -0.692701        -1.196154         0.252097
 H         1.625034         1.809612        -0.591041
 H         1.686316         1.651721         1.226971
 H         4.343790        -0.885132        -0.047445
 H         2.614611        -1.243810         2.010937
 H         2.925739        -2.953001        -0.574299
 H         1.225709        -2.738706        -0.115610
 H         2.562271        -1.145801        -2.663768
