19
Iteration:  3511
 C        -0.193278        -0.226275         0.178332
 C         1.287038        -0.068773         0.205742
 C         1.976686         1.281309         0.401131
 O         3.374866         1.051989         0.232016
 C         3.387082        -0.310239        -0.090199
 C         2.340091        -1.081963         0.881980
 C         2.109692        -2.158924        -0.063869
 C         2.186484        -0.850898        -0.930217
 O         1.888651        -0.782155        -2.284121
 H        -0.736791         0.205611         1.009470
 H        -0.465226         0.372087        -0.644258
 H        -0.353614        -1.269205        -0.196688
 H         1.592256         2.019148        -0.457054
 H         1.825338         1.870969         1.349531
 H         4.463488        -0.722966        -0.347375
 H         2.402660        -1.253810         1.937519
 H         2.917144        -2.973804        -0.138318
 H         1.122415        -2.583457        -0.049789
 H         1.942311         0.152289        -2.541667
