19
Iteration:   563
 C        -0.257230         0.159709         0.183248
 C         1.319635         0.007696         0.254240
 C         2.217338         1.318823         0.366784
 O         3.572070         0.875731         0.065103
 C         3.310345        -0.510720         0.016459
 C         2.217746        -1.071935         0.981021
 C         2.013149        -2.170970        -0.100255
 C         2.028513        -0.892678        -0.906632
 O         1.865918        -0.846263        -2.322453
 H        -0.650485         0.133351         1.229695
 H        -0.532996         0.978663        -0.444510
 H        -0.723580        -0.774114        -0.382822
 H         2.093203         2.235554        -0.293766
 H         2.264713         1.748863         1.351049
 H         4.223208        -0.965630         0.081583
 H         2.334625        -1.313509         1.997844
 H         2.919991        -2.785341        -0.099365
 H         1.137449        -2.732057        -0.107215
 H         1.785506         0.059697        -2.678995
