19
Iteration:  4748charge 0 multiplicity 1
 C        -0.141203        -0.049486         0.139242
 C         1.329739        -0.131132         0.189429
 C         1.864008         1.347806         0.164942
 O         3.315240         1.042974         0.023696
 C         3.327609        -0.274117        -0.016823
 C         2.369530        -0.978800         1.006412
 C         2.214759        -2.178503         0.120273
 C         2.158306        -0.940555        -0.891787
 O         1.929770        -0.957519        -2.190667
 H        -0.565487        -1.073486         0.138019
 H        -0.471779         0.636672         0.968250
 H        -0.562644         0.406037        -0.824720
 H         1.567058         2.073053        -0.534418
 H         1.589124         1.713093         1.208553
 H         4.472474        -0.635629        -0.139507
 H         2.320721        -1.039086         2.078790
 H         3.086145        -2.948492        -0.139699
 H         1.201665        -2.753174         0.100701
 H         2.021469        -0.149412        -2.645945
