19
Iteration:  2768
 C        -0.236375        -0.319204         0.280789
 C         1.274995        -0.034590         0.128700
 C         1.933628         1.296935         0.276879
 O         3.368808         1.008410         0.133420
 C         3.403818        -0.439618         0.020634
 C         2.363676        -1.021948         0.981778
 C         2.046934        -2.097302        -0.095050
 C         2.202296        -0.802875        -0.911803
 O         2.041037        -0.645129        -2.310331
 H        -0.552758         0.209619         1.290400
 H        -0.634853         0.404274        -0.462443
 H        -0.600434        -1.357450         0.151392
 H         1.731182         2.141626        -0.420607
 H         1.777535         1.667148         1.248967
 H         4.482665        -0.699829        -0.016145
 H         2.233392        -1.318370         2.080373
 H         2.880330        -2.871782        -0.286390
 H         0.951595        -2.566953        -0.096881
 H         1.367697        -1.240902        -2.766251
