19
Iteration:  2500
 C        -0.197297        -0.182719         0.204578
 C         1.302803        -0.124350         0.275023
 C         1.974349         1.274729         0.259222
 O         3.376501         1.050413         0.065517
 C         3.340796        -0.401903        -0.043745
 C         2.262598        -1.033585         0.999912
 C         2.079322        -2.215703        -0.061473
 C         2.156791        -0.899030        -0.940426
 O         1.963618        -0.612111        -2.225389
 H        -0.499869        -0.241818         1.212887
 H        -0.646101         0.745781        -0.278294
 H        -0.621109        -1.089196        -0.371329
 H         1.684607         1.805873        -0.714010
 H         1.816512         1.951339         1.107766
 H         4.425045        -0.820998         0.024108
 H         2.557036        -1.079160         2.056163
 H         2.901803        -2.997435        -0.269908
 H         1.126572        -2.808757         0.046312
 H         2.828127        -0.335354        -2.494757
