19
Iteration:  1905charge 0 multiplicity 1
 C        -0.221406        -0.139383         0.292480
 C         1.316013        -0.092798         0.285813
 C         1.972029         1.272996         0.138305
 O         3.388465         1.023656         0.161507
 C         3.392544        -0.445891         0.046131
 C         2.342374        -1.083504         0.979515
 C         2.037257        -2.191040        -0.190490
 C         2.134854        -0.801370        -0.892508
 O         1.997120        -0.689239        -2.284572
 H        -0.741358         0.365262         1.237857
 H        -0.572883         0.539635        -0.462192
 H        -0.654681        -1.069680         0.240443
 H         1.612312         1.651901        -0.878541
 H         1.689547         1.948457         1.015524
 H         4.363840        -0.894211        -0.105447
 H         2.358018        -1.457861         1.955522
 H         2.674093        -3.069316        -0.273611
 H         1.032684        -2.557681        -0.115897
 H         2.442275         0.112457        -2.475674
