19
Iteration:  3690charge 0 multiplicity 1
 C        -0.186607        -0.142808         0.176741
 C         1.356781        -0.169347         0.221588
 C         1.911253         1.220337         0.436631
 O         3.307367         0.971719         0.186020
 C         3.395047        -0.376948        -0.006495
 C         2.380388        -1.080069         0.903934
 C         2.151746        -2.110822        -0.245474
 C         2.196070        -0.819308        -0.921526
 O         1.864433        -0.655340        -2.241164
 H        -0.660740        -0.947634        -0.393891
 H        -0.540881        -0.283589         1.093299
 H        -0.506735         0.779678        -0.278660
 H         1.420316         2.077174        -0.147015
 H         1.730107         1.557785         1.469127
 H         4.356897        -0.734714        -0.130161
 H         2.575481        -1.442038         1.951936
 H         2.969506        -2.683366        -0.588581
 H         1.143591        -2.646934        -0.194106
 H         2.357016         0.154818        -2.603811
