19
Iteration:  4940charge 0 multiplicity 1
 C        -0.257912        -0.336523         0.244802
 C         1.342350        -0.036424         0.190173
 C         1.966504         1.342403         0.148181
 O         3.381311         1.078179         0.054804
 C         3.415735        -0.369808        -0.020771
 C         2.312042        -0.891422         1.004015
 C         2.034461        -2.074606         0.069124
 C         2.152157        -0.880580        -0.897956
 O         1.998614        -0.903226        -2.251468
 H        -0.516396        -1.154002         1.003331
 H        -0.878418         0.498693         0.517257
 H        -0.585271        -0.693899        -0.719362
 H         1.666640         1.823547        -0.732513
 H         1.805823         2.004170         0.995574
 H         4.475739        -0.695936        -0.107501
 H         2.448396        -0.813094         2.038274
 H         2.624958        -3.023226        -0.074722
 H         1.085959        -2.622040         0.132872
 H         2.265490        -0.012736        -2.680240
