19
Iteration:  3113charge 0 multiplicity 1
 C        -0.181184        -0.198527         0.339105
 C         1.336024        -0.080758         0.209441
 C         1.988931         1.307003         0.362966
 O         3.317014         1.105783         0.125078
 C         3.305781        -0.341087        -0.020946
 C         2.198461        -1.094225         0.907088
 C         2.097658        -2.158227        -0.164281
 C         2.157937        -0.823783        -0.932481
 O         2.088647        -0.879138        -2.327341
 H        -0.519759         0.156955         1.270476
 H        -0.561055         0.523668        -0.415328
 H        -0.604005        -1.114729         0.184593
 H         1.569170         2.008209        -0.290315
 H         1.753166         1.966400         1.267933
 H         4.400219        -0.680203        -0.064677
 H         2.316845        -1.181421         2.035832
 H         2.899764        -2.782907        -0.366151
 H         1.117655        -2.758494        -0.251807
 H         2.347988         0.053232        -2.471693
