19
Iteration:  3951
 C        -0.258182        -0.134514         0.577401
 C         1.240342        -0.199597         0.263155
 C         1.873219         1.260176         0.483623
 O         3.264197         1.013763         0.199222
 C         3.313140        -0.374611        -0.101681
 C         2.281456        -1.220628         0.770213
 C         2.149050        -2.200374        -0.352292
 C         2.212221        -0.838701        -1.033915
 O         2.183394        -0.542507        -2.362254
 H        -0.239023         0.453176         1.494384
 H        -0.773064         0.542972        -0.143106
 H        -0.701148        -1.148682         0.598788
 H         1.377781         2.081577        -0.297773
 H         1.791082         1.647634         1.515840
 H         4.349306        -0.630867        -0.123409
 H         2.402590        -1.343074         1.884117
 H         2.958780        -2.858985        -0.585757
 H         1.253163        -2.866565        -0.512031
 H         2.735532         0.227732        -2.430181
