19
Iteration:    40
 C        -0.108032         0.117261         0.097108
 C         1.384964        -0.029816         0.168063
 C         2.165075         1.310210         0.221751
 O         3.501282         0.779895         0.074122
 C         3.336821        -0.604186         0.058283
 C         2.353793        -1.132449         1.034407
 C         1.845927        -2.152102        -0.055118
 C         2.046333        -0.869825        -0.841647
 O         1.888107        -0.546556        -2.217211
 H        -0.478168         0.928737         0.754402
 H        -0.277880         0.435306        -0.936997
 H        -0.793672        -0.788419         0.344296
 H         1.981281         2.098592        -0.648405
 H         2.151961         1.715420         1.278924
 H         4.307339        -1.061794        -0.140276
 H         2.412314        -1.186777         2.188220
 H         2.508175        -3.044360        -0.293977
 H         0.833881        -2.636998         0.097572
 H         0.887940        -0.717186        -2.469155
