19
Iteration:  2368
 C        -0.263362        -0.089374         0.301054
 C         1.318016        -0.088290         0.223752
 C         1.873771         1.225248         0.243237
 O         3.377789         0.944412         0.039180
 C         3.341967        -0.452436        -0.059047
 C         2.306196        -1.060577         1.023504
 C         2.128557        -2.161728        -0.088310
 C         2.088403        -0.861465        -0.860976
 O         2.061456        -0.596408        -2.272910
 H        -0.759504         0.584327         0.879386
 H        -0.653675        -0.081634        -0.778623
 H        -0.398034        -1.052266         0.869727
 H         1.648361         1.892878        -0.607107
 H         2.002498         1.750468         1.132572
 H         4.280817        -0.942881        -0.304555
 H         2.290337        -1.268473         2.061022
 H         3.062768        -2.768422        -0.468551
 H         1.259970        -2.803230        -0.090886
 H         2.764828         0.133463        -2.275593
