19
Iteration:  1228charge 0 multiplicity 1
 C        -0.210034         0.100845         0.078954
 C         1.354696        -0.044445         0.239883
 C         2.118555         1.274807         0.358346
 O         3.544100         0.908827         0.228929
 C         3.391208        -0.477105        -0.046395
 C         2.294457        -1.119926         0.960633
 C         1.988569        -2.149670        -0.154316
 C         2.107758        -0.810592        -0.890274
 O         1.731347        -0.804901        -2.217937
 H        -0.592668         1.086938         0.206384
 H        -0.513900        -0.249556        -1.030325
 H        -0.615046        -0.578254         0.874945
 H         1.706365         1.943262        -0.495132
 H         1.954727         1.862776         1.279973
 H         4.355557        -0.921997        -0.219934
 H         2.608264        -1.236888         1.984841
 H         2.848634        -2.748189        -0.437384
 H         1.013377        -2.635256        -0.035967
 H         2.334264        -0.332644        -2.777800
