19
Iteration:  3049
 C        -0.208055        -0.138933         0.370639
 C         1.307416        -0.092802         0.171667
 C         1.904925         1.313006         0.208176
 O         3.336106         1.036107         0.099766
 C         3.335500        -0.381918         0.000283
 C         2.247161        -1.146354         0.934031
 C         2.129951        -2.172030        -0.181396
 C         2.165591        -0.898307        -0.866713
 O         2.073812        -0.688108        -2.224802
 H        -0.572480         0.602740         1.082722
 H        -0.735983         0.198108        -0.677115
 H        -0.469120        -1.150365         0.615408
 H         1.532290         1.958180        -0.722103
 H         1.613717         1.849519         1.142538
 H         4.414183        -0.758193        -0.052546
 H         2.492057        -1.423437         2.096333
 H         2.916667        -2.810853        -0.348313
 H         1.167477        -2.767555        -0.228969
 H         2.545256         0.088365        -2.469856
