19
Iteration:  4249
 C        -0.172004        -0.333625         0.317311
 C         1.327358        -0.043900         0.188719
 C         1.964328         1.329792         0.385886
 O         3.329680         1.048692         0.192761
 C         3.379466        -0.362657         0.012636
 C         2.341025        -1.060216         0.906408
 C         1.994865        -2.132504        -0.160474
 C         2.154717        -0.819143        -0.968129
 O         2.028101        -0.751696        -2.392957
 H        -0.504763         0.573116         0.609925
 H        -0.539593        -0.661796        -0.661748
 H        -0.505562        -0.937124         1.164773
 H         1.634375         2.073963        -0.295725
 H         1.713055         1.675767         1.397159
 H         4.450515        -0.675469        -0.051785
 H         2.487026        -1.254884         1.969603
 H         2.757361        -3.012852        -0.293951
 H         1.012889        -2.575000        -0.235589
 H         1.948169         0.257318        -2.515721
