19
Iteration:   609charge 0 multiplicity 1
 C        -0.129105        -0.022068         0.414120
 C         1.379504        -0.038694         0.259791
 C         2.073886         1.314264         0.109754
 O         3.533172         0.932030         0.112378
 C         3.340615        -0.531838         0.062270
 C         2.263119        -1.148445         0.965502
 C         1.697159        -2.138426        -0.068854
 C         2.127387        -0.908497        -0.917326
 O         1.995415        -0.597371        -2.357891
 H        -0.391862         0.596960         1.333648
 H        -0.413133         0.397685        -0.522448
 H        -0.750978        -0.995262         0.436849
 H         1.639289         1.678447        -0.883432
 H         1.905806         2.180420         0.850779
 H         4.333219        -0.933590        -0.076620
 H         2.569553        -1.389302         2.019805
 H         2.209001        -3.075192        -0.306329
 H         0.606031        -2.162041         0.116837
 H         2.861621        -0.819837        -2.865656
