19
Iteration:  1713charge 0 multiplicity 1
 C        -0.186125        -0.027272         0.350401
 C         1.316387        -0.094366         0.217555
 C         1.950276         1.298583         0.323971
 O         3.336772         0.999654         0.074110
 C         3.372229        -0.465669        -0.035120
 C         2.319803        -1.133845         0.944281
 C         1.941253        -2.134676        -0.118995
 C         2.132642        -0.858035        -0.902730
 O         2.197670        -0.767599        -2.348752
 H        -0.492993         0.607818         1.077193
 H        -0.815345         0.288147        -0.455786
 H        -0.667851        -0.994392         0.599017
 H         1.591082         2.083775        -0.270787
 H         1.816794         1.784064         1.300287
 H         4.370423        -0.855954        -0.110204
 H         2.401684        -1.120639         2.064902
 H         2.574372        -3.035002        -0.297504
 H         0.876116        -2.449074        -0.224224
 H         1.702420         0.102055        -2.570188
