19
Iteration:   215charge 0 multiplicity 1
 C        -0.139473         0.149914         0.101838
 C         1.384442        -0.002304         0.137226
 C         2.177610         1.336401         0.320697
 O         3.602677         0.836144         0.250143
 C         3.442649        -0.569652        -0.006356
 C         2.279057        -1.017663         0.946923
 C         1.870824        -2.213597         0.033657
 C         2.060068        -0.927732        -0.958148
 O         1.685883        -0.641895        -2.306933
 H        -0.557407         0.822607         0.843792
 H        -0.394472         0.433403        -0.895206
 H        -0.698452        -0.867154         0.172441
 H         1.931817         2.038952        -0.488999
 H         1.995524         1.764760         1.290727
 H         4.367034        -1.064217        -0.262716
 H         2.105644        -1.144858         2.086172
 H         2.641893        -3.084647         0.040896
 H         0.881775        -2.788808         0.127713
 H         2.260961        -1.132589        -2.834926
