19
Iteration:  2353charge 0 multiplicity 1
 C        -0.183787        -0.185867         0.259017
 C         1.295303        -0.123650         0.244212
 C         2.031262         1.303319         0.256954
 O         3.327911         0.956514        -0.034024
 C         3.288244        -0.452778         0.012733
 C         2.236056        -1.071284         0.973259
 C         2.140679        -2.224391        -0.071423
 C         2.167744        -0.845135        -0.904116
 O         1.998622        -0.554923        -2.222466
 H        -0.475213         0.757992         0.889299
 H        -0.592120         0.176750        -0.658498
 H        -0.677641        -1.065803         0.517634
 H         1.507221         1.917715        -0.463937
 H         1.702142         1.780520         1.203021
 H         4.265907        -0.903770        -0.074129
 H         2.464381        -1.159506         2.089793
 H         3.033180        -2.864702        -0.022049
 H         1.206733        -2.868659        -0.052319
 H         2.684747         0.147735        -2.500237
