19
Iteration:  2838charge 0 multiplicity 1
 C        -0.132040        -0.186361         0.211563
 C         1.379103        -0.114318         0.148320
 C         1.957664         1.318780         0.330589
 O         3.365510         1.059297         0.174477
 C         3.356163        -0.399736        -0.029637
 C         2.287611        -1.080908         0.968428
 C         2.075840        -2.166424        -0.087679
 C         2.166623        -0.867820        -0.902644
 O         1.868613        -0.670082        -2.287420
 H        -0.702169         0.413034         0.943114
 H        -0.569303         0.164622        -0.766592
 H        -0.469512        -1.286456         0.311977
 H         1.636943         2.090059        -0.406047
 H         1.738079         1.718164         1.396353
 H         4.385268        -0.774024        -0.077481
 H         2.403360        -1.216745         2.001345
 H         2.967686        -2.833853        -0.170849
 H         1.126390        -2.622875        -0.187649
 H         2.693582        -0.764548        -2.824915
