19
Iteration:  2066
 C        -0.305860        -0.203386         0.370618
 C         1.303499        -0.041420         0.314148
 C         1.922194         1.248281         0.248732
 O         3.349783         0.997890        -0.001273
 C         3.343331        -0.448194         0.023402
 C         2.318913        -1.088369         0.940852
 C         1.982804        -2.083228        -0.188562
 C         2.242585        -0.816121        -0.890334
 O         2.227943        -0.661312        -2.272965
 H        -0.520112        -0.385151         1.473147
 H        -0.913067         0.612099         0.025976
 H        -0.555441        -1.212196         0.040380
 H         1.430991         1.720915        -0.613707
 H         2.013226         1.860271         1.076106
 H         4.294289        -0.759863        -0.363880
 H         2.386343        -1.153580         1.922205
 H         2.712625        -2.946898        -0.217156
 H         0.964647        -2.378779        -0.165653
 H         1.320858        -0.400723        -2.541718
