19
Iteration:   808charge 0 multiplicity 1
 C        -0.104242         0.072069         0.563702
 C         1.343634         0.010667         0.124004
 C         2.061143         1.330091         0.345319
 O         3.376208         0.964680         0.105330
 C         3.274812        -0.469633        -0.016646
 C         2.176611        -1.051340         0.896090
 C         1.850874        -2.182754        -0.120038
 C         2.056179        -0.892041        -1.010015
 O         2.183891        -0.857202        -2.446361
 H        -0.198292        -0.408330         1.612996
 H        -0.467987         1.239306         0.524923
 H        -0.722586        -0.605642        -0.016159
 H         1.658277         2.119682        -0.275551
 H         2.030054         1.545288         1.399773
 H         4.213641        -0.985459         0.018836
 H         2.119931        -0.950548         1.934151
 H         2.563103        -3.042582        -0.369867
 H         0.849838        -2.668161        -0.054911
 H         3.137200        -0.623887        -2.644060
