19
Iteration:  4342charge 0 multiplicity 1
 C        -0.156892        -0.315565         0.292195
 C         1.280981        -0.067612         0.197406
 C         1.909008         1.320582         0.301672
 O         3.380758         1.043488         0.112075
 C         3.419933        -0.357435         0.013918
 C         2.352968        -1.050843         0.908087
 C         2.002533        -2.186931        -0.064240
 C         2.152673        -0.776458        -0.900751
 O         1.960414        -0.676836        -2.312172
 H        -0.395713        -0.914196         1.187325
 H        -0.770252         0.432632        -0.135108
 H        -0.417790        -1.034354        -0.478420
 H         1.482570         2.069145        -0.400316
 H         1.857157         1.746482         1.241000
 H         4.454180        -0.756418        -0.143746
 H         2.543360        -1.146632         2.005652
 H         2.622308        -3.018783        -0.196666
 H         0.965738        -2.607394        -0.105528
 H         2.715746        -0.270009        -2.674481
