19
Iteration:  3125charge 0 multiplicity 1
 C        -0.189823        -0.061489         0.280127
 C         1.278000        -0.110777         0.252379
 C         1.849453         1.310936         0.339688
 O         3.315014         1.033486         0.085123
 C         3.331987        -0.353997         0.038183
 C         2.322662        -1.094848         0.975878
 C         2.170378        -2.141154        -0.163667
 C         2.206424        -0.886463        -0.943185
 O         2.028649        -0.812761        -2.328215
 H        -0.522278         0.160153         1.254402
 H        -0.642931         0.673521        -0.451042
 H        -0.560256        -0.988979         0.014908
 H         1.496761         1.943901        -0.411350
 H         1.860652         1.588629         1.404735
 H         4.370132        -0.804712        -0.015006
 H         2.312983        -1.439574         2.096882
 H         3.018510        -2.720174        -0.236158
 H         1.241647        -2.763301        -0.231643
 H         2.348693         0.017808        -2.814316
