19
Iteration:  1618charge 0 multiplicity 1
 C        -0.191217        -0.214765         0.160805
 C         1.343816        -0.049346         0.205709
 C         2.029246         1.304853         0.157709
 O         3.503479         0.933823         0.178323
 C         3.395913        -0.446233         0.033670
 C         2.345872        -1.054203         0.960412
 C         1.968793        -2.141994        -0.093879
 C         2.113628        -0.799869        -0.872697
 O         1.910609        -0.584281        -2.186361
 H        -0.684821        -0.382044         1.254587
 H        -0.763841         0.631870        -0.230006
 H        -0.558342        -0.984658        -0.543438
 H         1.761699         1.888579        -0.838854
 H         1.852556         2.054841         1.001646
 H         4.371245        -0.918956         0.135989
 H         2.291418        -1.185531         2.071829
 H         2.620101        -2.971699        -0.327239
 H         0.934283        -2.445152        -0.189699
 H         1.541186        -1.304892        -2.741507
