19
Iteration:  2357
 C        -0.184601        -0.124325         0.275699
 C         1.280214        -0.125007         0.235531
 C         2.000552         1.269633         0.270968
 O         3.334029         0.924935        -0.025533
 C         3.296301        -0.444607        -0.013559
 C         2.267655        -1.089701         1.000089
 C         2.129257        -2.172767        -0.070008
 C         2.135262        -0.860343        -0.899799
 O         2.026135        -0.550736        -2.227280
 H        -0.540212         0.629827         0.886751
 H        -0.683471        -0.024460        -0.755205
 H        -0.620711        -1.127264         0.561690
 H         1.528812         1.858067        -0.557926
 H         1.789709         1.821278         1.161099
 H         4.286924        -0.825272        -0.155035
 H         2.363531        -1.111885         2.057743
 H         3.129605        -2.736155         0.015437
 H         1.307915        -2.859157        -0.180610
 H         2.629459         0.100496        -2.500798
