19
Iteration:  1988
 C        -0.108329        -0.170889         0.263717
 C         1.370123         0.002931         0.240445
 C         1.964729         1.380647         0.357301
 O         3.388350         1.041942         0.200078
 C         3.340234        -0.385058        -0.028047
 C         2.278943        -1.137488         0.917180
 C         2.004618        -2.180483        -0.194403
 C         2.116390        -0.825473        -0.901332
 O         2.027310        -0.726323        -2.300848
 H        -0.622861         0.395221         1.014110
 H        -0.570211        -0.030894        -0.729039
 H        -0.460052        -1.249841         0.263807
 H         1.528436         1.997267        -0.383178
 H         1.867904         1.955033         1.213886
 H         4.372674        -0.681547         0.006141
 H         2.451663        -1.495665         1.904490
 H         2.792783        -2.850866        -0.604015
 H         1.044464        -2.680860        -0.179756
 H         1.404563        -1.458763        -2.670088
