19
Iteration:   913charge 0 multiplicity 1
 C        -0.169831        -0.061499         0.133129
 C         1.370719         0.007486         0.162109
 C         2.171578         1.316243         0.339099
 O         3.501402         0.853855         0.116866
 C         3.347206        -0.556091         0.064962
 C         2.179385        -1.044971         0.974517
 C         2.055700        -2.207366        -0.118384
 C         2.086717        -0.844248        -0.887888
 O         1.779321        -0.629673        -2.269418
 H        -0.456407         0.994054         0.106919
 H        -0.405944        -0.500774        -0.817459
 H        -0.634412        -0.660718         1.024943
 H         1.994347         2.060279        -0.463598
 H         2.007316         1.926545         1.294689
 H         4.374696        -1.029929        -0.012054
 H         2.275188        -1.320612         2.099895
 H         2.899126        -2.851932        -0.273226
 H         1.109710        -2.750904         0.095098
 H         1.896721         0.373816        -2.548038
