19
Iteration:   865charge 0 multiplicity 1
 C        -0.078725        -0.014730         0.184965
 C         1.392285        -0.035221         0.310801
 C         2.062205         1.340182         0.219188
 O         3.448250         0.894207         0.183343
 C         3.303397        -0.547993        -0.053578
 C         2.347866        -1.153343         0.946530
 C         1.835436        -2.133772        -0.085084
 C         2.059475        -0.808850        -0.862455
 O         1.944100        -0.714242        -2.268485
 H        -0.563516         0.511061         1.005467
 H        -0.193914         0.462660        -0.934783
 H        -0.384920        -1.028854         0.112381
 H         1.734041         1.957014        -0.606738
 H         2.004782         2.010908         1.075273
 H         4.292183        -0.944885        -0.205636
 H         2.518009        -1.266711         1.988664
 H         2.690238        -2.839448        -0.294695
 H         0.822383        -2.519842        -0.062185
 H         1.793535         0.162276        -2.555099
