19
Iteration:    50charge 0 multiplicity 1
 C        -0.132053         0.127583         0.084780
 C         1.379036         0.010405         0.153575
 C         2.205137         1.236759         0.315838
 O         3.540292         0.801763         0.101837
 C         3.342694        -0.577947         0.011181
 C         2.249906        -1.054913         0.946852
 C         1.865859        -2.223183         0.015474
 C         2.089320        -0.874236        -0.912220
 O         1.883775        -0.584348        -2.233458
 H        -0.452775         0.851769         0.839035
 H        -0.678819         0.373229        -0.829837
 H        -0.440958        -0.863364         0.452139
 H         1.905462         1.977235        -0.596087
 H         1.947939         1.872631         1.201364
 H         4.238433        -1.196073        -0.158169
 H         2.480660        -1.248244         2.051423
 H         2.612550        -3.058945        -0.009396
 H         0.786575        -2.471890         0.121845
 H         0.881318        -0.305126        -2.276986
