19
Iteration:  3961
 C        -0.233289        -0.144816         0.544137
 C         1.271426        -0.105880         0.215102
 C         1.885552         1.175917         0.475689
 O         3.299585         1.037032         0.185189
 C         3.320531        -0.376170         0.025395
 C         2.303511        -1.149387         0.812153
 C         2.131484        -2.230653        -0.392487
 C         2.173006        -0.841128        -1.008340
 O         2.145917        -0.544772        -2.410739
 H        -0.415609        -0.147722         1.580235
 H        -0.938088         0.450218        -0.050051
 H        -0.612420        -1.183864         0.447520
 H         1.425582         2.039953        -0.261176
 H         1.801940         1.528225         1.484985
 H         4.252640        -0.771907        -0.208976
 H         2.435961        -1.296441         1.953187
 H         3.051696        -2.782780        -0.494034
 H         1.076970        -2.752457        -0.373039
 H         2.621203         0.257752        -2.461663
