19
Iteration:   415charge 0 multiplicity 1
 C        -0.197865         0.066567         0.259697
 C         1.395981         0.073298         0.131146
 C         2.287932         1.395221         0.334840
 O         3.520292         0.841972         0.082404
 C         3.269394        -0.550551         0.012367
 C         2.187028        -1.092838         0.981922
 C         1.840291        -2.163794        -0.090842
 C         2.060205        -0.866350        -0.937357
 O         1.906867        -0.783598        -2.262434
 H        -0.712586         0.592347         1.095577
 H        -0.670536         0.448106        -0.695554
 H        -0.436741        -0.979735         0.391003
 H         2.087066         2.185153        -0.362872
 H         2.197067         1.754079         1.320999
 H         4.193079        -1.167154        -0.106871
 H         2.334100        -1.257621         2.034005
 H         2.650284        -2.924381        -0.273309
 H         0.819375        -2.623164        -0.109235
 H         2.640242        -0.158695        -2.639141
