19
Iteration:  3542
 C        -0.142822        -0.348368         0.302993
 C         1.297278        -0.011493         0.169089
 C         1.980536         1.309462         0.369530
 O         3.332213         0.994411         0.107362
 C         3.348078        -0.393776         0.036242
 C         2.307828        -1.046043         0.939222
 C         2.030002        -2.082731        -0.153004
 C         2.141264        -0.779391        -0.928470
 O         1.981019        -0.692173        -2.323838
 H        -0.764513         0.316177         0.867547
 H        -0.542907        -0.475090        -0.722970
 H        -0.277679        -1.319819         0.757791
 H         1.734231         2.050699        -0.471034
 H         2.019271         1.708777         1.492978
 H         4.378657        -0.861961        -0.077064
 H         2.350485        -1.230975         2.017715
 H         2.745987        -2.920324        -0.379283
 H         1.114405        -2.568723        -0.106393
 H         2.731440        -0.152002        -2.668410
