19
Iteration:  2474
 C        -0.177927        -0.039381         0.166269
 C         1.340167        -0.129099         0.203123
 C         1.915350         1.223289         0.274070
 O         3.284917         1.029656         0.059967
 C         3.388107        -0.386942         0.020064
 C         2.392802        -1.119650         1.053627
 C         2.099360        -2.181371        -0.124828
 C         2.165496        -0.858048        -0.920931
 O         1.951848        -0.718387        -2.235551
 H        -0.565825         0.149322         1.299063
 H        -0.580300         0.714897        -0.472959
 H        -0.533075        -0.972805        -0.202673
 H         1.647512         1.991342        -0.451760
 H         1.646032         1.699935         1.317630
 H         4.365939        -0.642621        -0.161079
 H         2.366945        -1.289699         2.130081
 H         2.772453        -3.029033        -0.286433
 H         1.161065        -2.609988         0.147227
 H         2.501666         0.046729        -2.492178
