19
Iteration:   976
 C        -0.090503         0.076344         0.588948
 C         1.275958        -0.034376         0.172825
 C         2.043098         1.312688         0.411190
 O         3.391585         0.905494         0.152740
 C         3.262178        -0.544305        -0.055858
 C         2.150407        -1.034004         0.857253
 C         1.834569        -2.136156        -0.230039
 C         2.198759        -0.827974        -1.022805
 O         2.187365        -0.822564        -2.434350
 H        -0.810126         0.367733        -0.090796
 H        -0.467534        -1.025040         0.853722
 H        -0.280313         0.812958         1.384534
 H         1.739794         2.117038        -0.237660
 H         1.795201         1.653071         1.432499
 H         4.253078        -1.121803        -0.174128
 H         2.209222        -1.321405         1.966282
 H         2.640258        -2.872113        -0.314424
 H         0.783249        -2.502157        -0.216805
 H         2.836947        -0.041255        -2.690581
