19
Iteration:  2132charge 0 multiplicity 1
 C        -0.208358        -0.115689         0.208535
 C         1.326442        -0.127865         0.251945
 C         2.005931         1.350460         0.377278
 O         3.423542         1.072183         0.228134
 C         3.371558        -0.340858         0.088162
 C         2.349546        -1.094592         0.926603
 C         2.113042        -2.162419        -0.223489
 C         2.131086        -0.836423        -0.982998
 O         1.887826        -0.763425        -2.318577
 H        -0.756541         0.568161         1.012115
 H        -0.467760         0.306336        -0.754403
 H        -0.773660        -1.078924         0.321883
 H         1.521648         1.860514        -0.597510
 H         1.846389         1.950084         1.308874
 H         4.406633        -0.752618        -0.159014
 H         2.414279        -1.466171         1.887729
 H         2.935084        -2.904090        -0.447118
 H         1.143259        -2.651033        -0.144723
 H         1.735287        -1.686363        -2.650259
