19
Iteration:  3170charge 0 multiplicity 1
 C        -0.155376        -0.244774         0.173428
 C         1.359740        -0.066717         0.237254
 C         1.882137         1.322646         0.279941
 O         3.357662         1.032041         0.126386
 C         3.352217        -0.419208        -0.023462
 C         2.303922        -1.084132         0.985622
 C         2.125786        -2.209824        -0.060650
 C         2.134862        -0.817991        -0.889110
 O         1.915543        -0.648066        -2.273525
 H        -0.621775         0.006452         1.075501
 H        -0.475584         0.456311        -0.639841
 H        -0.371387        -1.205843        -0.177868
 H         1.662593         1.801129        -0.597826
 H         1.761189         1.831466         1.236927
 H         4.321596        -0.820166        -0.304784
 H         2.530932        -1.145482         2.141708
 H         2.929255        -2.880675        -0.221082
 H         1.193420        -2.714443         0.030287
 H         2.704458        -0.081596        -2.544534
