19
Iteration:  1955
 C        -0.245029        -0.194488         0.074760
 C         1.317011        -0.083382         0.160751
 C         1.995422         1.230166         0.472618
 O         3.448828         1.012272         0.124764
 C         3.418844        -0.362778        -0.035749
 C         2.362395        -1.010956         0.953851
 C         2.046573        -2.144353        -0.006427
 C         2.141403        -0.903862        -0.945352
 O         1.864103        -0.593420        -2.272890
 H        -0.814827         0.477650         0.670670
 H        -0.463970         0.257252        -0.910006
 H        -0.695882        -1.214993         0.335691
 H         1.507282         1.929029        -0.135426
 H         2.084746         1.416062         1.485856
 H         4.390639        -0.855067         0.003111
 H         2.605345        -1.044482         2.025723
 H         2.754609        -2.915212        -0.422909
 H         1.035601        -2.581225         0.103741
 H         2.203395        -1.375413        -2.801847
