19
Iteration:  4050charge 0 multiplicity 1
 C        -0.214462        -0.189456         0.171248
 C         1.362769        -0.179457         0.202818
 C         1.928977         1.273360         0.409416
 O         3.358634         1.041221         0.242713
 C         3.364198        -0.338536         0.003578
 C         2.350439        -1.177709         0.924025
 C         2.222055        -2.196996        -0.256556
 C         2.123327        -0.846686        -0.936112
 O         1.832917        -0.590806        -2.260155
 H        -0.631513        -1.113693         0.487172
 H        -0.377246         0.774885         0.749452
 H        -0.543939         0.313944        -0.766949
 H         1.404724         1.917923        -0.310683
 H         1.759201         1.614750         1.389035
 H         4.371244        -0.855522        -0.192080
 H         2.494260        -1.351442         1.970415
 H         3.212329        -2.700844        -0.451848
 H         1.389466        -3.007422        -0.276824
 H         2.255367         0.214336        -2.458151
