19
Iteration:  3076
 C        -0.178816        -0.330374         0.430849
 C         1.285618        -0.052762         0.128919
 C         1.985421         1.354917         0.287728
 O         3.308447         1.007329         0.181185
 C         3.355156        -0.418357         0.004183
 C         2.273758        -0.985762         0.947703
 C         1.955327        -2.065155        -0.099006
 C         2.162152        -0.829461        -0.964975
 O         2.160457        -0.767412        -2.426411
 H        -0.541463         0.329558         1.286131
 H        -0.755708        -0.023799        -0.384329
 H        -0.438043        -1.457939         0.610869
 H         1.704322         1.837824        -0.624349
 H         1.681369         1.640520         1.318041
 H         4.353752        -0.754922        -0.030302
 H         2.440938        -1.039600         1.960059
 H         2.757728        -2.968519        -0.211788
 H         0.949384        -2.406437         0.029967
 H         2.338272         0.076821        -2.784652
