19
Iteration:  4064charge 0 multiplicity 1
 C        -0.202720        -0.101487         0.275160
 C         1.262845        -0.147647         0.217592
 C         1.920130         1.222777         0.441712
 O         3.322369         1.033749         0.186741
 C         3.329511        -0.390206         0.012482
 C         2.384808        -1.169302         0.902520
 C         2.240106        -2.196875        -0.233700
 C         2.130917        -0.795551        -0.929629
 O         1.934903        -0.626953        -2.336065
 H        -0.657180        -1.122709         0.281609
 H        -0.727029         0.138174         1.168956
 H        -0.602088         0.228270        -0.639454
 H         1.713888         2.056478        -0.398004
 H         1.715283         1.709545         1.457617
 H         4.411675        -0.676984        -0.215372
 H         2.440661        -1.402129         1.929846
 H         3.070190        -2.857113        -0.517236
 H         1.395132        -2.721972        -0.192172
 H         2.384612         0.227960        -2.641409
