19
Iteration:  3962charge 0 multiplicity 1
 C        -0.225270        -0.153616         0.541332
 C         1.275450        -0.099760         0.206052
 C         1.889568         1.169397         0.473294
 O         3.302513         1.037716         0.183815
 C         3.320536        -0.378312         0.032491
 C         2.304194        -1.139217         0.828141
 C         2.127755        -2.232342        -0.392878
 C         2.166141        -0.833025        -1.010028
 O         2.142047        -0.546068        -2.412917
 H        -0.460025        -0.182812         1.588315
 H        -0.950147         0.462377        -0.033454
 H        -0.611254        -1.196261         0.410554
 H         1.426338         2.053664        -0.266299
 H         1.779830         1.523449         1.510079
 H         4.269556        -0.804472        -0.218469
 H         2.433126        -1.330841         1.942622
 H         3.035181        -2.784845        -0.490079
 H         1.110349        -2.725192        -0.360626
 H         2.608555         0.273110        -2.489785
