19
Iteration:  2049
 C        -0.160591        -0.186922         0.498981
 C         1.311355        -0.140287         0.174265
 C         1.914270         1.325352         0.151512
 O         3.318088         1.019107         0.019817
 C         3.331346        -0.402316        -0.008756
 C         2.238806        -1.100761         0.973447
 C         1.983179        -2.210248        -0.150315
 C         2.161199        -0.864352        -0.891360
 O         2.257337        -0.593851        -2.258538
 H        -0.407772        -0.128754         1.571016
 H        -0.505555         0.754568        -0.036892
 H        -0.662396        -1.105389         0.098418
 H         1.557039         1.819606        -0.808112
 H         1.646412         1.868477         1.156372
 H         4.429839        -0.752596         0.051753
 H         2.289147        -1.457978         2.123868
 H         2.768146        -2.913974        -0.422719
 H         0.938310        -2.668995        -0.215772
 H         1.450202        -0.113660        -2.598996
