19
Iteration:   327charge 0 multiplicity 1
 C        -0.197698         0.147377         0.363555
 C         1.341433         0.046042         0.249452
 C         2.172652         1.357198         0.092610
 O         3.580168         0.765067         0.061839
 C         3.322174        -0.642541         0.121563
 C         2.128717        -1.062952         1.033664
 C         1.856742        -2.152545        -0.174500
 C         2.107911        -0.860264        -0.910165
 O         2.011794        -0.627004        -2.272991
 H        -0.562783         0.257707         1.407182
 H        -0.618044         0.892343        -0.302245
 H        -0.605026        -0.825888         0.006519
 H         1.929481         1.773154        -0.909422
 H         2.205379         2.138044         0.808254
 H         4.245954        -1.103627         0.136463
 H         2.036453        -1.229581         2.061609
 H         2.718093        -2.850561        -0.432308
 H         0.926488        -2.686372        -0.007804
 H         1.532450        -1.412824        -2.625418
