19
Iteration:  2566charge 0 multiplicity 1
 C        -0.187875        -0.113639         0.367101
 C         1.369185        -0.109758         0.149579
 C         1.882988         1.318284         0.290990
 O         3.301035         0.993843         0.178478
 C         3.344112        -0.394703         0.000786
 C         2.321050        -1.101547         0.947925
 C         2.044460        -2.133186        -0.155297
 C         2.196080        -0.806301        -0.915525
 O         2.045737        -0.692977        -2.378840
 H        -0.189318         0.387193         1.309788
 H        -0.899010         0.415212        -0.414051
 H        -0.731659        -1.165903         0.490502
 H         1.460504         1.920839        -0.610134
 H         1.621920         1.850320         1.213662
 H         4.452200        -0.769775         0.113580
 H         2.519501        -1.253795         2.033247
 H         2.935927        -2.873207        -0.240635
 H         1.050094        -2.680247        -0.008387
 H         2.643449        -1.399007        -2.836172
