19
Iteration:  4207charge 0 multiplicity 1
 C        -0.149932        -0.293570         0.083838
 C         1.342153        -0.129701         0.238892
 C         1.982472         1.353355         0.416823
 O         3.341545         1.000702         0.175502
 C         3.337692        -0.367697         0.021256
 C         2.394116        -1.066974         0.929127
 C         2.136923        -2.161270        -0.173916
 C         2.163354        -0.782313        -0.891620
 O         1.800526        -0.687291        -2.247824
 H        -0.656666         0.656316        -0.450442
 H        -0.362011        -1.062295        -0.730115
 H        -0.749698        -0.518920         1.001696
 H         1.772293         2.249306        -0.161469
 H         1.917981         1.677337         1.417815
 H         4.330071        -0.782045        -0.166050
 H         2.561643        -1.163169         2.064100
 H         3.022857        -2.825783        -0.431359
 H         1.266637        -2.730804         0.004587
 H         2.188338         0.011388        -2.800994
