19
Iteration:  3987
 C        -0.138482        -0.399922         0.314290
 C         1.339448        -0.102981         0.223097
 C         1.951687         1.297831         0.465745
 O         3.347791         0.982718         0.234518
 C         3.327575        -0.369356        -0.052401
 C         2.289628        -1.142215         0.835575
 C         2.005001        -2.101637        -0.272493
 C         2.186874        -0.747452        -0.962373
 O         2.024167        -0.585877        -2.332435
 H        -0.395227        -0.778769         1.398569
 H        -0.782850         0.515042         0.181004
 H        -0.679011        -1.225870        -0.182994
 H         1.600097         2.129829        -0.269860
 H         1.942534         1.808611         1.516527
 H         4.393788        -0.819379        -0.248617
 H         2.353760        -1.179505         1.876636
 H         2.879328        -2.729023        -0.453876
 H         1.075826        -2.461707        -0.322768
 H         2.174124         0.328644        -2.471184
