19
Iteration:  1976
 C        -0.086151        -0.203050         0.151975
 C         1.368709        -0.043334         0.227997
 C         1.977940         1.356930         0.427706
 O         3.327119         1.016123         0.153320
 C         3.358408        -0.391987        -0.012181
 C         2.342672        -1.139913         0.921421
 C         1.956112        -2.108701        -0.157877
 C         2.169956        -0.800476        -0.921080
 O         1.955539        -0.701912        -2.267778
 H        -0.641549         0.422857         0.775583
 H        -0.277773         0.245905        -0.855258
 H        -0.340088        -1.289698         0.474158
 H         1.685930         2.069771        -0.312116
 H         1.857361         1.640905         1.444106
 H         4.298525        -0.774166        -0.414492
 H         2.437487        -1.203685         2.047167
 H         2.778010        -2.831567        -0.236878
 H         0.983794        -2.615151        -0.175553
 H         1.697737        -1.568360        -2.491697
