19
Iteration:   807charge 0 multiplicity 1
 C        -0.108052         0.070862         0.563931
 C         1.350546         0.009960         0.125986
 C         2.060739         1.335197         0.348164
 O         3.377410         0.966654         0.105482
 C         3.273702        -0.461297        -0.026038
 C         2.186179        -1.055649         0.897798
 C         1.842987        -2.188605        -0.126168
 C         2.046840        -0.885008        -1.011226
 O         2.188874        -0.858511        -2.441189
 H        -0.232294        -0.390679         1.656930
 H        -0.440022         1.197256         0.526113
 H        -0.780639        -0.599489        -0.061070
 H         1.655780         2.108370        -0.310852
 H         2.013522         1.567250         1.375562
 H         4.227585        -1.009516         0.026375
 H         2.159750        -0.993727         1.987200
 H         2.531400        -3.048701        -0.340839
 H         0.840857        -2.693576        -0.046340
 H         3.181359        -0.628168        -2.648646
