19
Iteration:  4900
 C        -0.201113        -0.167569         0.098130
 C         1.315731        -0.060318         0.123129
 C         1.971303         1.347198         0.242367
 O         3.363503         1.137741         0.108140
 C         3.421330        -0.314044         0.041106
 C         2.379487        -0.911021         0.976554
 C         2.148638        -2.149674         0.014491
 C         2.177778        -0.910835        -0.850083
 O         1.831600        -1.064384        -2.248833
 H        -0.452654        -1.175873         0.372194
 H        -0.721866         0.406930         0.910453
 H        -0.589145         0.282834        -0.849525
 H         1.517400         1.926118        -0.668197
 H         1.702159         1.790649         1.233540
 H         4.520014        -0.694210         0.001017
 H         2.296433        -0.874998         2.042696
 H         2.988413        -2.794814        -0.034585
 H         1.191506        -2.680527         0.211882
 H         1.921406        -0.223550        -2.640180
