19
Iteration:  4636
 C        -0.181780        -0.050906         0.465778
 C         1.281838        -0.094657         0.140374
 C         1.867990         1.281246         0.084475
 O         3.252972         1.038941        -0.028462
 C         3.274095        -0.406262         0.009574
 C         2.294537        -1.024384         0.952657
 C         2.184297        -2.167757         0.002388
 C         2.156950        -0.916761        -0.856744
 O         2.133154        -0.742846        -2.232939
 H        -0.521962         0.200305         1.546348
 H        -0.646762         0.690742        -0.263635
 H        -0.618244        -1.085677         0.324911
 H         1.629035         1.874065        -0.744649
 H         1.527678         1.806140         0.999992
 H         4.352742        -0.643243        -0.303610
 H         2.341255        -1.180763         2.004989
 H         2.995226        -2.881917        -0.183315
 H         1.259542        -2.845992        -0.104718
 H         3.017552        -0.965990        -2.601867
