19
Iteration:   529charge 0 multiplicity 1
 C        -0.024344         0.117047         0.176273
 C         1.414183        -0.028788         0.133377
 C         2.134433         1.303479         0.448572
 O         3.453727         0.936932         0.129190
 C         3.355192        -0.491965        -0.087659
 C         2.316705        -1.040291         0.926723
 C         1.760575        -2.086827        -0.078755
 C         2.016578        -0.903139        -0.907730
 O         1.975998        -0.913326        -2.270122
 H        -0.369472         0.210217         1.210821
 H        -0.355552         1.072698        -0.302254
 H        -0.569999        -0.780688        -0.250672
 H         1.627026         2.138620        -0.073903
 H         1.973799         1.381774         1.496742
 H         4.369602        -0.854668        -0.117063
 H         2.579106        -1.262851         1.939284
 H         2.236136        -3.043251        -0.167351
 H         0.708858        -2.195089         0.071043
 H         1.307777        -0.340836        -2.807778
