19
Iteration:  1886
 C        -0.209775        -0.149401         0.431842
 C         1.301459        -0.096715         0.158134
 C         1.952084         1.366739         0.156050
 O         3.361348         0.981929         0.202514
 C         3.329463        -0.398660        -0.020129
 C         2.344558        -1.133969         0.934057
 C         1.868798        -2.162584        -0.100671
 C         2.227009        -0.859401        -0.966332
 O         2.163979        -0.717874        -2.323350
 H        -0.519141        -0.000021         1.422592
 H        -0.898409         0.561118        -0.123023
 H        -0.663332        -1.177060         0.318509
 H         1.865748         1.805389        -0.810408
 H         1.696307         2.003863         0.939921
 H         4.380794        -0.704941        -0.170729
 H         2.548493        -1.079212         2.065330
 H         2.622201        -2.885402        -0.313782
 H         0.854295        -2.595887        -0.047117
 H         2.006120         0.197949        -2.388706
