19
Iteration:   111charge 0 multiplicity 1
 C        -0.136704         0.130588         0.426822
 C         1.360520        -0.017242         0.281566
 C         2.128569         1.355580         0.285061
 O         3.490369         0.890495         0.135100
 C         3.314431        -0.506895        -0.075132
 C         2.192938        -1.091370         0.949484
 C         1.720352        -2.127935        -0.184519
 C         2.113449        -0.899485        -0.926142
 O         2.055809        -0.844423        -2.352243
 H        -0.287775         0.512847         1.468844
 H        -0.478560         0.996279        -0.257747
 H        -0.805048        -0.731241         0.337783
 H         1.983638         1.985300        -0.492511
 H         2.047748         1.911691         1.216054
 H         4.320468        -0.863756        -0.472431
 H         2.204146        -1.265710         1.968669
 H         2.313307        -3.011509        -0.256109
 H         0.674462        -2.291361        -0.315770
 H         3.020136        -0.960148        -2.731948
