19
Iteration:   921
 C        -0.128844        -0.003309         0.174387
 C         1.337955        -0.015650         0.251811
 C         2.152146         1.350944         0.364400
 O         3.460559         0.821082         0.144953
 C         3.288259        -0.542726        -0.001818
 C         2.238516        -1.043567         0.949083
 C         2.009151        -2.129988        -0.150644
 C         2.130278        -0.850046        -0.879517
 O         1.834625        -0.700004        -2.307670
 H        -0.642396         0.897043         0.009433
 H        -0.553263        -0.701627        -0.715845
 H        -0.524945        -0.572440         1.057877
 H         1.929137         1.978715        -0.475151
 H         2.173507         1.879987         1.332507
 H         4.330501        -0.989575        -0.142578
 H         2.187403        -1.170236         2.081995
 H         2.897850        -2.799254        -0.210855
 H         1.115771        -2.782350        -0.228568
 H         2.084199         0.276025        -2.518811
