19
Iteration:  2496charge 0 multiplicity 1
 C        -0.208939        -0.171796         0.180025
 C         1.305984        -0.134042         0.262116
 C         1.937399         1.280635         0.264687
 O         3.378997         1.064760         0.058198
 C         3.360552        -0.424381        -0.042698
 C         2.273294        -1.057483         0.957955
 C         2.074297        -2.241352        -0.036975
 C         2.187137        -0.917639        -0.884957
 O         1.954815        -0.616040        -2.219522
 H        -0.505561        -0.092047         1.355314
 H        -0.554177         0.743502        -0.249437
 H        -0.643860        -0.963909        -0.387403
 H         1.618768         1.869102        -0.591322
 H         1.840672         2.063729         1.097751
 H         4.335621        -0.685568         0.015330
 H         2.628078        -1.106400         1.977367
 H         2.893569        -2.929458        -0.274131
 H         1.116827        -2.703936        -0.109527
 H         2.819317        -0.235128        -2.576121
