19
Iteration:  1024
 C        -0.130311        -0.035470         0.355752
 C         1.370406        -0.054705         0.256644
 C         2.085352         1.264509         0.239709
 O         3.439191         0.821678         0.103389
 C         3.351986        -0.557275        -0.058308
 C         2.222897        -1.134805         0.928161
 C         1.835767        -2.158254        -0.157393
 C         2.092539        -0.829199        -0.889456
 O         2.040495        -0.536648        -2.262670
 H        -0.652500        -0.162521        -0.667221
 H        -0.592552        -0.637101         1.021739
 H        -0.453224         1.041818         0.578195
 H         1.664925         1.786782        -0.620707
 H         1.928929         2.009260         1.061280
 H         4.401858        -0.855000        -0.094272
 H         2.338248        -1.284717         1.982542
 H         2.474165        -3.026236        -0.318536
 H         0.788071        -2.474592        -0.156946
 H         2.540378         0.243689        -2.262227
