19
Iteration:    28charge 0 multiplicity 1
 C        -0.123194         0.141932         0.134411
 C         1.377632        -0.018026         0.351717
 C         2.162187         1.295022         0.184239
 O         3.527623         0.839477         0.050943
 C         3.372120        -0.597621        -0.057248
 C         2.274958        -1.193860         1.056697
 C         1.819727        -2.176156        -0.093458
 C         2.059595        -0.883217        -0.822362
 O         1.908826        -0.554216        -2.178085
 H        -0.556621         0.990531         0.682774
 H        -0.117304         0.506780        -0.908865
 H        -0.792475        -0.752062         0.071748
 H         1.798896         2.090063        -0.703068
 H         2.011564         1.989925         1.086512
 H         4.356499        -1.120746        -0.160735
 H         2.341954        -1.360851         2.190914
 H         2.577965        -2.894406        -0.522609
 H         0.736684        -2.444721        -0.064684
 H         1.404419        -1.239927        -2.598304
