19
Iteration:  1171
 C        -0.236952        -0.105763         0.581921
 C         1.332562        -0.017792         0.060170
 C         2.135358         1.330679         0.218052
 O         3.501825         0.814460        -0.007257
 C         3.293680        -0.530718         0.050564
 C         2.097646        -1.038521         0.944072
 C         1.824535        -2.107738        -0.134292
 C         2.130822        -0.868370        -0.924378
 O         2.251047        -0.594996        -2.303185
 H        -0.712840         0.839617         0.431685
 H        -0.977496        -0.791618        -0.106423
 H        -0.419926        -0.557769         1.518822
 H         1.931352         2.094216        -0.617394
 H         2.230848         1.791448         1.208558
 H         4.201543        -0.985144        -0.259121
 H         2.068927        -1.175543         2.042721
 H         2.556142        -2.978867        -0.101496
 H         0.783301        -2.524434        -0.021227
 H         1.430849        -0.019479        -2.614709
