19
Iteration:  2603
 C        -0.265599        -0.154450         0.162593
 C         1.288140        -0.143857         0.222101
 C         1.957625         1.254893         0.365205
 O         3.417554         1.080832         0.099605
 C         3.364100        -0.346624        -0.079955
 C         2.260846        -1.161857         0.987352
 C         2.134782        -2.204411        -0.073263
 C         2.194066        -0.819408        -0.921379
 O         1.986474        -0.607799        -2.266569
 H        -0.446132         0.606608         1.020230
 H        -0.702862         0.371480        -0.665549
 H        -0.690653        -1.019648         0.491137
 H         1.514544         1.996868        -0.325465
 H         1.888783         1.793857         1.349825
 H         4.312689        -0.788154        -0.283428
 H         2.221958        -1.284547         2.061235
 H         3.032221        -2.742236        -0.224695
 H         1.272613        -2.868770        -0.114313
 H         1.981058        -1.568084        -2.514778
