19
Iteration:  4890
 C        -0.221628        -0.111636         0.122163
 C         1.328886        -0.124947         0.127213
 C         1.898239         1.309242         0.221319
 O         3.358578         1.101494         0.090980
 C         3.365509        -0.265566         0.024967
 C         2.377319        -0.923688         1.012617
 C         2.225738        -2.138124         0.082734
 C         2.221233        -0.923729        -0.886946
 O         1.846992        -1.046186        -2.263574
 H        -0.809516        -1.014995        -0.021252
 H        -0.381361         0.484359         1.066737
 H        -0.655873         0.430681        -0.777374
 H         1.693007         2.180128        -0.561307
 H         1.746399         1.848449         1.198208
 H         4.348924        -0.837523        -0.125077
 H         2.407133        -0.964163         2.132980
 H         2.911083        -2.893599         0.026235
 H         1.238062        -2.648635         0.079032
 H         1.922458        -0.190451        -2.628082
