19
Iteration:  4715
 C        -0.211337        -0.275118         0.107167
 C         1.316007        -0.035237         0.200887
 C         1.963944         1.425077         0.257248
 O         3.421218         1.045072         0.022436
 C         3.367294        -0.313857         0.001780
 C         2.359600        -0.931196         0.995563
 C         2.066400        -2.109383         0.097887
 C         2.176248        -0.876239        -0.888608
 O         1.932291        -0.984982        -2.274041
 H        -0.435188        -1.099153         0.824974
 H        -0.889883         0.471851         0.574655
 H        -0.471898        -0.509607        -0.965927
 H         1.625848         2.129553        -0.448345
 H         1.841839         1.812719         1.296746
 H         4.539825        -0.588371        -0.034172
 H         2.337787        -1.032514         2.049472
 H         2.930363        -2.890777        -0.067896
 H         0.975994        -2.521381         0.206434
 H         1.489826        -0.198674        -2.600276
