19
Iteration:  4100charge 0 multiplicity 1
 C        -0.160517        -0.331553         0.501477
 C         1.313845        -0.082669         0.177948
 C         1.931700         1.310514         0.419035
 O         3.306469         1.080584         0.155648
 C         3.324594        -0.348222        -0.053071
 C         2.295901        -1.139253         0.849989
 C         1.959870        -2.151649        -0.217153
 C         2.124191        -0.777834        -0.977699
 O         2.215742        -0.704752        -2.389391
 H        -0.366527        -1.119081        -0.247796
 H        -0.341330        -0.615208         1.504891
 H        -0.761750         0.576170         0.373060
 H         1.561025         2.121151        -0.313380
 H         1.675843         1.632900         1.510678
 H         4.227210        -0.845586        -0.206796
 H         2.229588        -1.222934         2.012290
 H         2.530234        -2.994788        -0.506361
 H         0.884997        -2.348330        -0.161807
 H         2.589378         0.200039        -2.561842
