19
Iteration:  4555charge 0 multiplicity 1
 C        -0.200928        -0.285640         0.052357
 C         1.341785        -0.107801         0.225022
 C         1.984572         1.317205         0.196356
 O         3.394826         1.118136         0.130113
 C         3.434540        -0.379222         0.015389
 C         2.324048        -1.002447         1.015684
 C         2.141496        -2.113269         0.005849
 C         2.205052        -0.859369        -0.884062
 O         1.745575        -0.766833        -2.218832
 H        -0.490615         0.909974        -0.034568
 H        -0.626999        -1.054166        -0.673676
 H        -0.658943        -0.548049         1.079119
 H         1.718642         2.009853        -0.656925
 H         1.693095         1.800858         1.121845
 H         4.467902        -0.550530        -0.089616
 H         2.536028        -1.127687         2.134481
 H         3.026272        -2.736739        -0.148965
 H         1.203210        -2.613765         0.021858
 H         2.165870        -1.389970        -2.771679
