19
Iteration:  2461
 C        -0.157364        -0.128578         0.192222
 C         1.316115        -0.117122         0.217806
 C         1.955659         1.274207         0.341989
 O         3.358591         1.022441         0.122282
 C         3.327083        -0.386906         0.006687
 C         2.330820        -1.020185         0.936193
 C         2.100689        -2.152462        -0.086347
 C         2.094530        -0.868044        -0.867474
 O         1.990255        -0.780014        -2.332147
 H        -0.553935         0.277405         1.234694
 H        -0.450665         0.576775        -0.572752
 H        -0.694236        -1.044996         0.083068
 H         1.459817         1.786475        -0.473523
 H         1.860826         1.750333         1.380691
 H         4.339856        -0.880584        -0.004955
 H         2.570914        -1.103624         2.018805
 H         2.922815        -2.708794        -0.417658
 H         1.155878        -2.737802        -0.146069
 H         2.248839         0.138034        -2.561593
