19
Iteration:  3928
 C        -0.217066        -0.119706         0.512590
 C         1.284685        -0.185198         0.328943
 C         1.855522         1.155433         0.437659
 O         3.270486         1.001181         0.204982
 C         3.302165        -0.399126        -0.012165
 C         2.363311        -1.240015         0.846075
 C         2.105626        -2.124270        -0.379984
 C         2.117060        -0.764756        -0.964065
 O         2.191759        -0.525030        -2.445500
 H        -0.404172         0.722026         1.117713
 H        -0.796228        -0.048665        -0.427691
 H        -0.408252        -1.092076         0.972016
 H         1.310200         1.864981        -0.408523
 H         1.718436         1.591398         1.420051
 H         4.225774        -0.672126        -0.396227
 H         2.463532        -1.425628         1.957522
 H         2.909875        -2.788175        -0.636421
 H         1.173030        -2.792530        -0.424643
 H         2.729510         0.303243        -2.479903
