19
Iteration:  1582
 C        -0.110303        -0.065029         0.132650
 C         1.373406        -0.072852         0.167776
 C         1.994528         1.310909         0.312947
 O         3.449557         0.957982         0.113347
 C         3.344127        -0.459210        -0.041400
 C         2.240532        -1.116668         0.983484
 C         2.088498        -2.216695         0.036325
 C         2.121720        -0.850725        -0.941173
 O         1.811049        -0.580974        -2.241442
 H        -0.633977         0.117939         1.171607
 H        -0.386733         0.768029        -0.564333
 H        -0.505879        -1.115557        -0.141536
 H         1.710313         1.913802        -0.618194
 H         1.825654         1.779748         1.341999
 H         4.286053        -0.924006        -0.055602
 H         2.298883        -1.185657         2.051165
 H         2.842893        -2.958599        -0.248607
 H         1.117684        -2.726007         0.045760
 H         2.693287        -0.904528        -2.661500
