19
Iteration:  3389charge 0 multiplicity 1
 C        -0.214521        -0.198887         0.358036
 C         1.297963        -0.059358         0.206264
 C         1.899621         1.260757         0.334369
 O         3.323754         1.021822         0.068650
 C         3.313428        -0.417785        -0.019853
 C         2.296764        -1.062095         0.987120
 C         2.090503        -2.144202        -0.040543
 C         2.106559        -0.838320        -0.915174
 O         2.094014        -0.679651        -2.412074
 H        -0.357734        -0.740886         1.267683
 H        -0.626285         0.882548         0.419368
 H        -0.614394        -0.715661        -0.516078
 H         1.508017         1.840106        -0.485339
 H         1.782468         1.771566         1.144881
 H         4.345809        -0.790920        -0.177898
 H         2.525635        -1.090731         2.096950
 H         3.012316        -2.742305        -0.367477
 H         1.207623        -2.719737        -0.164402
 H         3.094323        -0.499506        -2.572459
