19
Iteration:  4129
 C        -0.205857        -0.376223         0.554676
 C         1.287971        -0.079397         0.199489
 C         1.917333         1.319231         0.381046
 O         3.326290         1.010038         0.125703
 C         3.288844        -0.392635        -0.030607
 C         2.217425        -1.042012         0.855790
 C         2.035687        -2.111621        -0.244249
 C         2.203967        -0.802491        -0.966773
 O         2.208966        -0.659088        -2.380100
 H        -0.846984        -0.598536        -0.348843
 H        -0.127847        -1.102373         1.413650
 H        -0.710697         0.586652         0.808375
 H         1.671420         1.965689        -0.499498
 H         1.742447         1.842775         1.270977
 H         4.262182        -1.038172        -0.055908
 H         2.208722        -1.092510         1.897769
 H         2.708329        -3.013214        -0.424400
 H         1.018324        -2.351534        -0.366586
 H         2.622529         0.157289        -2.546807
