19
Iteration:  2635
 C        -0.053490        -0.318793         0.105212
 C         1.356627        -0.069870         0.230451
 C         1.919593         1.351975         0.344229
 O         3.378663         1.016123         0.152234
 C         3.407514        -0.440700        -0.019799
 C         2.338235        -1.015346         0.979813
 C         1.951353        -2.172184        -0.056600
 C         2.171640        -0.801255        -0.923524
 O         1.933796        -0.587094        -2.274137
 H        -0.595272         0.198595         0.952189
 H        -0.597801         0.113822        -0.794821
 H        -0.397222        -1.298421         0.164047
 H         1.586710         2.076459        -0.494605
 H         1.820712         1.769287         1.345674
 H         4.399256        -0.850326        -0.115095
 H         2.452981        -1.072114         2.053386
 H         2.766618        -2.873695        -0.260440
 H         1.039118        -2.806415         0.045557
 H         1.485693        -1.366594        -2.782726
