19
Iteration:  3514
 C        -0.209715        -0.252686         0.182819
 C         1.307796        -0.074532         0.192703
 C         1.957986         1.308188         0.413440
 O         3.401656         1.056319         0.231949
 C         3.386676        -0.318620        -0.098763
 C         2.355549        -1.065739         0.891607
 C         2.096863        -2.144202        -0.068627
 C         2.168920        -0.851677        -0.937635
 O         1.895531        -0.781163        -2.276416
 H        -0.786680         0.226863         1.053856
 H        -0.514456         0.279780        -0.734673
 H        -0.433674        -1.342628        -0.156303
 H         1.688301         1.954774        -0.421721
 H         1.846954         1.762314         1.314663
 H         4.396683        -0.751765        -0.332218
 H         2.414913        -1.190026         1.969205
 H         2.845722        -2.946932        -0.132214
 H         1.043620        -2.646785        -0.119109
 H         2.028303         0.190216        -2.553711
