19
Iteration:  3442charge 0 multiplicity 1
 C        -0.145660        -0.302022         0.384048
 C         1.304715        -0.067146         0.218646
 C         1.943383         1.302219         0.261508
 O         3.340601         1.007031         0.142945
 C         3.312476        -0.398753         0.030405
 C         2.291303        -0.971387         0.900081
 C         2.023173        -2.129528        -0.091718
 C         2.117262        -0.843258        -0.947842
 O         2.123826        -0.758192        -2.385559
 H        -0.474241        -0.698705         1.284708
 H        -0.610074         0.745920         0.409815
 H        -0.459291        -0.766434        -0.475092
 H         1.626212         2.061728        -0.602951
 H         1.757378         1.853106         1.302546
 H         4.228971        -0.767523        -0.271020
 H         2.379078        -1.147685         2.009505
 H         2.787556        -2.895097        -0.237775
 H         1.052115        -2.539452         0.116743
 H         2.178137         0.234110        -2.643398
