19
Iteration:  1847charge 0 multiplicity 1
 C        -0.293910        -0.164963         0.475681
 C         1.258663         0.039064         0.122715
 C         2.029084         1.333834         0.345338
 O         3.391259         0.998730         0.072900
 C         3.298737        -0.420029         0.055536
 C         2.196156        -1.020051         0.896788
 C         2.003593        -2.184519        -0.181179
 C         2.194039        -0.817911        -0.948499
 O         2.243710        -0.810532        -2.383295
 H        -0.194024         0.035343         1.561768
 H        -0.813693         0.619341        -0.024105
 H        -0.690720        -1.140051         0.153044
 H         1.696459         2.239750        -0.258742
 H         1.894717         1.685504         1.455464
 H         4.289542        -0.913065        -0.016465
 H         2.242246        -1.346655         1.929394
 H         2.864365        -2.866485         0.056368
 H         1.053598        -2.776019        -0.239875
 H         1.326319        -0.584018        -2.781919
