19
Iteration:  2886charge 0 multiplicity 1
 C        -0.224698        -0.237828         0.386392
 C         1.293585        -0.073597         0.211153
 C         1.912801         1.285190         0.272108
 O         3.369545         0.988678         0.036360
 C         3.308790        -0.391365        -0.027847
 C         2.300024        -1.049352         0.954701
 C         2.044317        -2.151104        -0.197535
 C         2.103973        -0.795560        -0.867910
 O         2.167185        -0.704074        -2.264270
 H        -0.529579         0.212401         1.307368
 H        -0.876714         0.354478        -0.282559
 H        -0.626424        -1.191407         0.420885
 H         1.620083         1.982193        -0.548903
 H         1.881144         1.916044         1.337620
 H         4.266195        -0.878950        -0.329873
 H         2.233596        -1.310399         2.079500
 H         2.804624        -2.845297        -0.472823
 H         1.101471        -2.778538        -0.081636
 H         2.729050         0.096299        -2.483121
