19
Iteration:  2516
 C        -0.191286        -0.281546         0.298051
 C         1.326297        -0.036860         0.169849
 C         1.947054         1.320083         0.165298
 O         3.394193         0.931982         0.114210
 C         3.313082        -0.449705         0.042034
 C         2.338746        -1.033565         0.986156
 C         2.076149        -2.110619        -0.046878
 C         2.097079        -0.813181        -0.819757
 O         1.994454        -0.618295        -2.337989
 H        -0.705183        -0.329713         1.336238
 H        -0.699003         0.452109        -0.256870
 H        -0.331148        -1.114837        -0.289451
 H         1.633944         2.021948        -0.559507
 H         1.816683         1.847430         1.135994
 H         4.214744        -0.845247        -0.322421
 H         2.156030        -1.194901         2.046311
 H         2.929707        -2.696140        -0.168780
 H         1.117885        -2.601178        -0.050733
 H         2.814524        -0.542267        -2.748805
