19
Iteration:  1968charge 0 multiplicity 1
 C        -0.139450        -0.191452         0.084797
 C         1.364514        -0.105134         0.241293
 C         1.984280         1.286413         0.453195
 O         3.356650         1.009407         0.134967
 C         3.368383        -0.432049        -0.062019
 C         2.376700        -1.023243         0.984936
 C         1.996890        -2.111190        -0.147047
 C         2.171700        -0.782358        -0.882555
 O         1.914915        -0.673557        -2.283623
 H        -0.573197         0.477853         0.892204
 H        -0.456241         0.003568        -0.904446
 H        -0.477269        -1.201875         0.256328
 H         1.721308         2.156785        -0.133961
 H         1.764418         1.571214         1.484684
 H         4.368422        -0.766967        -0.266294
 H         2.411697        -1.129739         1.990682
 H         2.676848        -3.051156        -0.189241
 H         0.956697        -2.419263        -0.086945
 H         1.841349        -1.547686        -2.657922
