19
Iteration:  4747
 C        -0.140874        -0.054921         0.137639
 C         1.325029        -0.135518         0.187205
 C         1.873060         1.348752         0.166334
 O         3.319066         1.044379         0.026818
 C         3.323847        -0.279357        -0.018161
 C         2.370601        -0.970129         1.008709
 C         2.212631        -2.185669         0.121534
 C         2.162405        -0.935987        -0.895759
 O         1.927343        -0.959194        -2.188376
 H        -0.581286        -1.111702         0.153767
 H        -0.477468         0.665046         0.951676
 H        -0.535608         0.391347        -0.851457
 H         1.545928         2.096197        -0.528291
 H         1.581566         1.656164         1.218366
 H         4.474610        -0.625042        -0.143558
 H         2.335996        -1.009617         2.049865
 H         3.072573        -2.893479        -0.127536
 H         1.186635        -2.721664         0.104328
 H         1.986516        -0.117564        -2.653166
