19
Iteration:   382charge 0 multiplicity 1
 C        -0.131606         0.155090         0.171597
 C         1.370390         0.008854         0.144393
 C         2.195254         1.289117         0.429645
 O         3.547345         0.882169         0.128033
 C         3.323118        -0.531838        -0.024781
 C         2.246477        -1.099602         1.001374
 C         1.828046        -2.058463        -0.042230
 C         2.089855        -0.842019        -0.955355
 O         1.915043        -0.904420        -2.333163
 H        -0.602529         0.445092         1.136968
 H        -0.410609         0.949698        -0.576475
 H        -0.582136        -0.765883        -0.230741
 H         1.976437         2.133967        -0.196595
 H         2.140617         1.615590         1.425633
 H         4.336759        -0.968508        -0.120438
 H         2.399663        -1.193088         2.044504
 H         2.437322        -3.001161        -0.169818
 H         0.759664        -2.346859        -0.088123
 H         1.150735        -0.430178        -2.563525
