19
Iteration:   186charge 0 multiplicity 1
 C        -0.125775         0.026466         0.157805
 C         1.422252         0.026894         0.251090
 C         2.175092         1.353624         0.166166
 O         3.493768         0.779959         0.153556
 C         3.379577        -0.612676        -0.009435
 C         2.325512        -1.086155         1.028917
 C         1.751065        -2.103548        -0.087045
 C         2.103635        -0.857814        -0.833374
 O         1.822927        -0.614620        -2.217900
 H        -0.681754         0.273543         1.084173
 H        -0.429542         0.744068        -0.634925
 H        -0.496284        -0.942626        -0.180866
 H         1.889227         1.866325        -0.852824
 H         2.119519         2.208051         0.912388
 H         4.324753        -1.070233        -0.223326
 H         2.383302        -1.297107         2.032161
 H         2.361884        -2.988983        -0.251390
 H         0.712608        -2.234585        -0.018696
 H         2.426166        -1.019922        -2.838097
