19
Iteration:  4973charge 0 multiplicity 1
 C        -0.190019        -0.111329         0.389783
 C         1.308827        -0.134131         0.199048
 C         1.892506         1.305996         0.098231
 O         3.192773         1.041525        -0.099754
 C         3.367596        -0.382075        -0.020300
 C         2.254022        -0.990025         1.030481
 C         2.117789        -2.225646         0.040874
 C         2.176643        -0.911450        -0.847085
 O         2.154485        -0.766228        -2.256784
 H        -0.291560        -0.481042         1.451895
 H        -0.568548         0.881549         0.344277
 H        -0.642912        -0.576716        -0.440244
 H         1.493035         1.679286        -0.786184
 H         1.678991         1.968252         0.925839
 H         4.328817        -0.899980        -0.028258
 H         2.249885        -0.904864         2.046737
 H         3.126270        -2.759826        -0.142123
 H         1.130727        -2.709106         0.057770
 H         2.859249        -0.075385        -2.347693
