19
Iteration:  1366
 C        -0.127041         0.023291         0.406749
 C         1.305218        -0.026706         0.197184
 C         2.061233         1.285775         0.232176
 O         3.405923         0.931141         0.116663
 C         3.288614        -0.521087        -0.002408
 C         2.245771        -1.077954         0.978857
 C         1.891919        -2.121511        -0.125573
 C         2.101685        -0.848786        -0.927569
 O         2.135135        -0.819910        -2.371535
 H        -0.384904        -0.091026         1.585960
 H        -0.568580         1.078873         0.330456
 H        -0.759938        -0.665942        -0.201753
 H         1.689161         1.875365        -0.667433
 H         1.926316         1.992579         1.136505
 H         4.268534        -0.828612        -0.139886
 H         2.450367        -1.262018         2.025454
 H         2.773680        -2.863228        -0.144086
 H         0.918191        -2.604395        -0.333968
 H         1.881028         0.168225        -2.554660
