19
Iteration:   666
 C        -0.235008         0.109102         0.406726
 C         1.363580        -0.050845         0.140836
 C         2.131571         1.222460         0.349492
 O         3.478152         0.889524         0.106622
 C         3.347493        -0.491197         0.035147
 C         2.220369        -1.061224         0.920064
 C         1.915776        -2.162941        -0.029638
 C         2.095834        -0.873284        -0.922794
 O         2.039455        -0.675399        -2.479106
 H        -0.469041         1.124748         0.796391
 H        -0.774341         0.154277        -0.594902
 H        -0.620052        -0.726058         0.947094
 H         1.775446         2.031363        -0.337218
 H         2.237690         1.561988         1.468326
 H         4.450292        -0.797849        -0.134981
 H         2.263624        -1.130947         2.044002
 H         2.694350        -2.951772        -0.124491
 H         0.901725        -2.711816        -0.047046
 H         1.245882        -1.137740        -2.786908
