19
Iteration:  1129charge 0 multiplicity 1
 C        -0.131031         0.069594         0.403033
 C         1.333232        -0.062753         0.270332
 C         2.061284         1.284697         0.281266
 O         3.414819         0.896670         0.221670
 C         3.303176        -0.475064        -0.090544
 C         2.284543        -1.157303         0.889196
 C         1.780814        -2.139686        -0.171922
 C         2.131236        -0.788117        -0.962420
 O         2.155582        -0.693482        -2.360488
 H        -0.405299         0.900018        -0.170684
 H        -0.897005        -0.785845         0.369872
 H        -0.086741         0.370691         1.457166
 H         1.727752         1.852436        -0.626343
 H         1.895965         1.830159         1.197443
 H         4.280729        -0.846475        -0.177767
 H         2.350429        -1.285434         1.974877
 H         2.464580        -2.929547        -0.497478
 H         0.750010        -2.475106        -0.015444
 H         1.697056        -1.509361        -2.643311
