19
Iteration:   790charge 0 multiplicity 1
 C        -0.229245         0.060034         0.517768
 C         1.254286        -0.025224         0.281372
 C         2.004553         1.332511         0.284123
 O         3.448249         0.938604         0.098250
 C         3.302861        -0.511442        -0.109412
 C         2.286684        -1.102958         0.866557
 C         1.803956        -2.101747        -0.147403
 C         2.140482        -0.885147        -0.943997
 O         2.191772        -0.831125        -2.335934
 H        -0.427526        -0.311122         1.468705
 H        -0.513061         1.102235         0.444410
 H        -0.859127        -0.502214        -0.163890
 H         1.776637         2.011873        -0.563493
 H         1.866082         1.974824         1.249547
 H         4.270302        -0.803908        -0.493906
 H         2.506958        -1.367491         1.912945
 H         2.504327        -2.944723        -0.333564
 H         0.758861        -2.301665        -0.126417
 H         3.168252        -0.630051        -2.506571
