19
Iteration:  4156
 C        -0.232319        -0.192328         0.365126
 C         1.321072        -0.124337         0.212244
 C         1.850592         1.272756         0.327272
 O         3.293290         1.031426         0.161001
 C         3.362307        -0.421625        -0.018033
 C         2.374695        -1.127731         0.901719
 C         2.116561        -2.168482        -0.204680
 C         2.126682        -0.863675        -0.889147
 O         2.079973        -0.600491        -2.350154
 H        -0.896193         0.062248        -0.441710
 H        -0.371937        -1.154291         0.821743
 H        -0.554428         0.665030         0.937350
 H         1.691674         1.927188        -0.597734
 H         1.544084         1.898546         1.277376
 H         4.306428        -0.855172        -0.178979
 H         2.605248        -1.371470         2.017268
 H         2.955752        -2.777645        -0.425567
 H         1.183932        -2.818407        -0.225676
 H         2.579249         0.181938        -2.417117
