19
Iteration:  4611charge 0 multiplicity 1
 C        -0.207986        -0.207563         0.355322
 C         1.284537        -0.095890         0.205957
 C         1.869797         1.313673         0.197085
 O         3.393490         1.053018        -0.012242
 C         3.357019        -0.323611         0.038345
 C         2.269132        -0.966121         0.937393
 C         2.077820        -2.188049         0.019248
 C         2.206610        -0.895782        -0.897150
 O         2.046614        -0.752193        -2.313599
 H        -0.668370         0.552884         1.211391
 H        -0.771040        -0.018115        -0.636129
 H        -0.454128        -1.161598         0.929540
 H         1.662561         1.963943        -0.686064
 H         1.697330         1.862261         1.122851
 H         4.339748        -0.597625        -0.025749
 H         2.332766        -0.980911         2.105001
 H         2.814470        -2.939776        -0.238409
 H         1.089634        -2.620867         0.056735
 H         2.686507        -1.359916        -2.829364
