19
Iteration:  2867
 C        -0.201593        -0.316896         0.343373
 C         1.323323        -0.074841         0.148112
 C         1.994068         1.311950         0.343986
 O         3.378261         1.027809         0.096604
 C         3.303768        -0.446067        -0.051616
 C         2.292631        -0.993560         0.926132
 C         1.968348        -2.102676        -0.018030
 C         2.134148        -0.846328        -0.925014
 O         2.056743        -0.646280        -2.373792
 H        -0.683380         0.032495         1.310952
 H        -0.695212        -0.039397        -0.553048
 H        -0.293194        -1.431602         0.318550
 H         1.720034         2.112495        -0.355868
 H         1.840683         1.634288         1.352788
 H         4.368768        -0.822212         0.048259
 H         2.556296        -1.050571         2.011827
 H         2.656467        -3.010582        -0.101738
 H         0.947738        -2.609091        -0.073930
 H         2.895529        -0.144490        -2.656676
