19
Iteration:  1960
 C        -0.192611        -0.199812         0.072439
 C         1.339588        -0.089954         0.195981
 C         1.989339         1.220998         0.464271
 O         3.419675         1.007040         0.131258
 C         3.404336        -0.397061        -0.068683
 C         2.369940        -0.976636         0.985188
 C         2.038278        -2.136122        -0.061130
 C         2.145016        -0.858035        -0.918143
 O         1.883839        -0.621716        -2.283090
 H        -0.764999         0.517377         0.814692
 H        -0.586722         0.037601        -0.937001
 H        -0.688295        -1.124507         0.192766
 H         1.480632         2.080754        -0.133685
 H         1.980488         1.528558         1.611232
 H         4.427495        -0.813756        -0.011705
 H         2.538594        -1.124312         2.073035
 H         2.665437        -2.985750        -0.428866
 H         0.977986        -2.399616         0.020139
 H         2.043391        -1.484151        -2.733236
