19
Iteration:  4231charge 0 multiplicity 1
 C        -0.166020        -0.349379         0.164767
 C         1.346302        -0.106702         0.194400
 C         1.954275         1.310898         0.465752
 O         3.448218         1.064910         0.221605
 C         3.377067        -0.361678        -0.071738
 C         2.312756        -1.033853         0.913343
 C         2.031054        -2.113807        -0.134788
 C         2.168864        -0.769856        -0.956166
 O         1.897608        -0.748669        -2.289388
 H        -1.096725         0.475659         0.050137
 H        -0.307384        -0.956024        -0.757235
 H        -0.353888        -1.020641         1.025997
 H         1.572847         2.133331        -0.224416
 H         1.968675         1.770835         1.450411
 H         4.289304        -0.847192        -0.252701
 H         2.372211        -1.077797         2.094343
 H         2.722550        -2.890186        -0.350236
 H         1.027819        -2.528301         0.021562
 H         2.036206         0.123190        -2.800287
