19
Iteration:  1387charge 0 multiplicity 1
 C        -0.238766        -0.024160         0.288449
 C         1.346301        -0.005356         0.247678
 C         2.087034         1.373033         0.300722
 O         3.496155         0.939929         0.192545
 C         3.367285        -0.432068        -0.057629
 C         2.313927        -1.090126         0.878693
 C         1.901739        -2.156684        -0.163620
 C         2.167810        -0.835094        -0.885694
 O         1.912437        -0.889416        -2.258558
 H        -0.853808         0.097031         1.321671
 H        -0.593409         0.861920        -0.287092
 H        -0.546415        -0.833211        -0.418560
 H         1.734636         1.964151        -0.604195
 H         1.820747         1.907330         1.269535
 H         4.322955        -0.882050        -0.113042
 H         2.367322        -1.235500         1.953244
 H         2.584356        -2.870749        -0.641865
 H         0.888352        -2.488148         0.035017
 H         2.451549        -0.145661        -2.678800
