19
Iteration:   998
 C        -0.286818         0.040309         0.602634
 C         1.221455         0.007974         0.157755
 C         2.125037         1.331963         0.265672
 O         3.533685         0.837329         0.084257
 C         3.292735        -0.537934         0.000072
 C         2.104786        -1.104977         0.918056
 C         1.954180        -2.201578        -0.253325
 C         2.051507        -0.812166        -0.929239
 O         2.202488        -0.695970        -2.390925
 H        -0.974637        -0.000755        -0.164854
 H        -0.568734        -0.942019         1.183044
 H        -0.633650         0.938882         1.099808
 H         1.898085         2.129680        -0.421673
 H         1.976706         1.686759         1.286903
 H         4.356362        -0.899274         0.074213
 H         2.266910        -1.391663         2.007286
 H         2.854036        -2.772158        -0.481789
 H         0.964764        -2.683122        -0.323409
 H         2.585525         0.129331        -2.427089
