19
Iteration:  4874charge 0 multiplicity 1
 C        -0.187852         0.008514         0.189355
 C         1.301628        -0.099383         0.149436
 C         1.884479         1.310181         0.180550
 O         3.279929         1.087929         0.044732
 C         3.365019        -0.369128        -0.058676
 C         2.340124        -0.960568         1.012698
 C         2.216107        -2.151806         0.093933
 C         2.189224        -0.930697        -0.844679
 O         1.963380        -1.002930        -2.260894
 H        -0.649370        -0.983992        -0.062033
 H        -0.676634         0.170786         1.129119
 H        -0.386461         0.850904        -0.439198
 H         1.404058         1.831316        -0.627609
 H         1.609052         1.696880         1.164823
 H         4.416853        -0.616245        -0.064490
 H         2.516414        -0.880736         2.097364
 H         3.199580        -2.854229         0.073637
 H         1.431887        -2.984605         0.205793
 H         1.987431        -0.135081        -2.616794
