19
Iteration:   672
 C        -0.188919         0.119854         0.323169
 C         1.324437        -0.034735         0.184845
 C         2.081927         1.230079         0.396849
 O         3.469821         0.915168         0.113293
 C         3.390377        -0.488567        -0.007946
 C         2.254824        -1.079334         0.944242
 C         1.913226        -2.157099        -0.063563
 C         2.125676        -0.879065        -0.968409
 O         2.025565        -0.721688        -2.425706
 H        -0.461364         1.056626         0.872482
 H        -0.637460         0.196942        -0.636467
 H        -0.730627        -0.627772         1.039596
 H         1.905180         2.064154        -0.284617
 H         2.011555         1.566947         1.387841
 H         4.276200        -1.048266        -0.162028
 H         2.414610        -1.194722         2.021691
 H         2.592919        -2.991771        -0.215579
 H         0.901531        -2.494333        -0.000503
 H         1.047736        -1.011068        -2.665542
