19
Iteration:  4783charge 0 multiplicity 1
 C        -0.260425        -0.163958         0.379304
 C         1.286152        -0.072881         0.202761
 C         1.865317         1.328895         0.048922
 O         3.358942         1.039857         0.005885
 C         3.328940        -0.305084        -0.032834
 C         2.312246        -0.921344         1.010857
 C         2.112857        -2.117598         0.013224
 C         2.177792        -0.926167        -0.853235
 O         2.087086        -0.923196        -2.255518
 H        -0.664699        -1.044991        -0.023860
 H        -0.644886        -0.248317         1.393831
 H        -0.724681         0.707518        -0.112087
 H         1.718370         1.803599        -0.866435
 H         1.834339         2.082503         0.818986
 H         4.266944        -0.862268         0.004072
 H         2.364607        -0.952478         2.165384
 H         2.952437        -2.983955        -0.007023
 H         1.080863        -2.578475         0.099582
 H         2.857905        -0.506466        -2.633206
