19
Iteration:  4668
 C        -0.232375        -0.206517         0.415473
 C         1.284708        -0.077528         0.191923
 C         1.939345         1.325704         0.074526
 O         3.304427         1.096145         0.034036
 C         3.365105        -0.386975         0.041294
 C         2.336254        -0.983187         1.001301
 C         2.078997        -2.155445         0.062240
 C         2.192522        -0.943548        -0.947083
 O         2.062897        -0.820240        -2.320541
 H        -0.634465        -0.371706         1.517808
 H        -0.711931         0.824160         0.288126
 H        -0.642067        -0.792942        -0.459153
 H         1.692719         1.859222        -0.846963
 H         1.535873         1.888591         0.942679
 H         4.369163        -0.803778        -0.172714
 H         2.536917        -1.067661         2.063442
 H         2.791243        -2.952138        -0.039960
 H         1.005495        -2.541153        -0.030786
 H         2.659307        -0.182282        -2.680135
