19
Iteration:  1959charge 0 multiplicity 1
 C        -0.203485        -0.203625         0.070184
 C         1.334487        -0.086717         0.187625
 C         1.990226         1.219850         0.466039
 O         3.427036         1.007570         0.130429
 C         3.410214        -0.389140        -0.063604
 C         2.368839        -0.981120         0.985000
 C         2.039165        -2.136401        -0.047384
 C         2.143266        -0.870363        -0.925682
 O         1.880177        -0.616712        -2.282415
 H        -0.798833         0.526487         0.798942
 H        -0.563781         0.079148        -0.915288
 H        -0.685616        -1.107067         0.215869
 H         1.469625         2.044688        -0.138683
 H         2.013538         1.506566         1.603917
 H         4.409306        -0.818968         0.002881
 H         2.549638        -1.105223         2.016800
 H         2.694181        -2.989396        -0.454463
 H         0.991990        -2.425916         0.036910
 H         2.068417        -1.436130        -2.723903
