19
Iteration:  2708
 C        -0.260699        -0.090637         0.474442
 C         1.230688        -0.119593         0.116246
 C         1.863893         1.268164         0.306731
 O         3.330741         1.086877         0.116302
 C         3.392342        -0.365173        -0.034611
 C         2.278211        -1.083988         0.889381
 C         2.093515        -2.248047        -0.117286
 C         2.206278        -0.922198        -0.975697
 O         2.262181        -0.676290        -2.328327
 H        -0.313910         0.268925         1.436079
 H        -0.883129         0.600995        -0.092209
 H        -0.994601        -0.927948         0.454818
 H         1.493834         1.801022        -0.515190
 H         1.706918         1.657722         1.303681
 H         4.454316        -0.724182        -0.079316
 H         2.379231        -1.030002         1.954537
 H         2.724801        -3.120163        -0.209228
 H         1.096861        -2.655267        -0.169493
 H         1.267404        -0.552177        -2.533119
