19
Iteration:  3155
 C        -0.192396        -0.086272         0.149085
 C         1.268143        -0.197902         0.202152
 C         1.940682         1.251965         0.266915
 O         3.359699         1.049111         0.158313
 C         3.312946        -0.317744        -0.096590
 C         2.395263        -1.075043         0.954866
 C         2.175882        -2.203722        -0.027577
 C         2.113818        -0.959916        -0.889595
 O         1.958129        -0.643550        -2.227838
 H        -0.643421         0.027177         1.157192
 H        -0.532856         0.689123        -0.515347
 H        -0.758630        -0.976969        -0.165638
 H         1.441357         2.006094        -0.432708
 H         1.626737         1.727721         1.313614
 H         4.379936        -0.739557        -0.231711
 H         2.441326        -1.266496         1.997309
 H         3.099483        -2.843474        -0.133701
 H         1.200290        -2.899860         0.041477
 H         2.540513        -0.001382        -2.550875
