19
Iteration:   181
 C        -0.143799         0.022472         0.188408
 C         1.419953         0.045636         0.296354
 C         2.143917         1.368061         0.137261
 O         3.525808         0.793679         0.110514
 C         3.419956        -0.621393         0.046226
 C         2.286142        -1.105425         1.011891
 C         1.742366        -2.123414        -0.116985
 C         2.088577        -0.849097        -0.830235
 O         1.842346        -0.606868        -2.245444
 H        -0.700516         0.235727         1.098620
 H        -0.416819         0.817404        -0.512892
 H        -0.523711        -0.951173        -0.199396
 H         1.888329         1.839301        -0.804950
 H         2.148746         2.122977         0.900805
 H         4.412880        -1.073094        -0.261599
 H         2.277615        -1.340922         2.162443
 H         2.478872        -2.964311        -0.112532
 H         0.628455        -2.328495         0.019155
 H         2.483935        -1.041119        -2.841245
