19
Iteration:  1803
 C        -0.133171        -0.032001         0.162607
 C         1.369090        -0.118951         0.251818
 C         1.957816         1.304557         0.319568
 O         3.321271         1.016240         0.163847
 C         3.357726        -0.474960        -0.031724
 C         2.376117        -1.140783         0.935003
 C         2.032246        -2.130150        -0.033725
 C         2.090259        -0.886650        -0.929737
 O         2.006090        -0.620289        -2.291483
 H        -0.505690         0.537819         1.047099
 H        -0.345010         0.388307        -0.798495
 H        -0.475804        -1.054554        -0.030602
 H         1.541877         2.123332        -0.343722
 H         1.610802         1.823358         1.284549
 H         4.398930        -0.889109        -0.183133
 H         2.559572        -1.262194         2.025735
 H         2.669138        -2.990285        -0.368164
 H         1.031124        -2.589205         0.105411
 H         1.732515        -1.519701        -2.701663
