19
Iteration:   534charge 0 multiplicity 1
 C        -0.037477         0.135133         0.156871
 C         1.410823        -0.022619         0.186507
 C         2.093118         1.300825         0.475429
 O         3.474491         0.937677         0.097874
 C         3.337634        -0.488706        -0.097433
 C         2.299429        -1.060073         0.914944
 C         1.765625        -2.066575        -0.094763
 C         2.090903        -0.904818        -0.904200
 O         1.946115        -0.933929        -2.263839
 H        -0.389443         0.112114         1.212898
 H        -0.232194         1.071925        -0.365195
 H        -0.605565        -0.694798        -0.278749
 H         1.718515         2.170818        -0.116938
 H         2.029065         1.470016         1.649596
 H         4.404298        -0.865153        -0.139623
 H         2.489588        -1.222205         2.006418
 H         2.373612        -3.002814        -0.140277
 H         0.662993        -2.334382        -0.101330
 H         1.359235        -0.346223        -2.646985
