19
Iteration:  3872charge 0 multiplicity 1
 C        -0.135645        -0.456110         0.127260
 C         1.319308        -0.084852         0.311845
 C         2.033924         1.321457         0.457613
 O         3.411476         0.971588         0.306423
 C         3.376555        -0.461017         0.023730
 C         2.385088        -1.066890         0.858089
 C         2.024821        -2.144627        -0.341150
 C         2.143171        -0.758181        -0.945875
 O         1.827541        -0.495289        -2.308681
 H        -0.773849         0.370954         0.366260
 H        -0.302655        -0.526754        -0.957399
 H        -0.535882        -1.245497         0.772469
 H         1.634472         2.242408        -0.253606
 H         1.797031         1.682997         1.441099
 H         4.274341        -0.878676        -0.241473
 H         2.541920        -1.364959         1.925393
 H         2.852142        -2.829125        -0.438723
 H         1.020236        -2.546821        -0.010806
 H         1.954488         0.428881        -2.384098
