19
Iteration:  4199
 C        -0.178139        -0.235041         0.069682
 C         1.335603        -0.135224         0.227556
 C         1.941862         1.321355         0.433135
 O         3.368023         1.047468         0.165607
 C         3.367986        -0.377797         0.005120
 C         2.373564        -1.114053         0.957641
 C         2.195806        -2.195054        -0.156131
 C         2.153587        -0.800786        -0.950474
 O         1.794962        -0.664127        -2.240368
 H        -0.551162         0.781590        -0.358823
 H        -0.212325        -1.170735        -0.430240
 H        -0.697243        -0.304652         1.020768
 H         1.436443         2.016359        -0.384035
 H         1.912479         1.773947         1.494442
 H         4.318444        -0.807178        -0.105410
 H         2.498254        -1.209743         2.120661
 H         2.895507        -2.900475        -0.427357
 H         1.251587        -2.758174        -0.044391
 H         2.304218         0.034110        -2.647859
