19
Iteration:  4993charge 0 multiplicity 1
 C        -0.310644        -0.087836         0.455360
 C         1.268775        -0.109849         0.260150
 C         1.817352         1.307191         0.099355
 O         3.322147         1.056351        -0.127434
 C         3.285182        -0.364639         0.035335
 C         2.291584        -1.018697         1.041864
 C         2.160227        -2.176271        -0.026384
 C         2.197466        -0.949182        -0.957819
 O         2.209805        -0.803881        -2.244604
 H        -0.514095        -0.136481         1.567119
 H        -0.738134         0.861179         0.147609
 H        -0.798043        -0.678325        -0.264407
 H         1.339554         1.772287        -0.801011
 H         1.747570         1.843038         1.063569
 H         4.250191        -0.692893        -0.145767
 H         2.501858        -1.210094         2.120962
 H         3.059442        -2.954137        -0.033395
 H         1.149428        -2.671215         0.020888
 H         3.025291        -0.237247        -2.548064
