19
Iteration:  1995charge 0 multiplicity 1
 C        -0.201211        -0.163789         0.288040
 C         1.320335        -0.072888         0.275245
 C         1.985308         1.370081         0.309124
 O         3.410450         1.050302         0.216421
 C         3.337849        -0.409280        -0.030258
 C         2.295228        -1.077716         0.937181
 C         2.051458        -2.191687        -0.246386
 C         2.115954        -0.816788        -0.911786
 O         2.061202        -0.725292        -2.335345
 H        -0.566873         0.346721         1.178699
 H        -0.716135         0.236308        -0.670180
 H        -0.329962        -1.260190         0.553173
 H         1.720453         2.007588        -0.629357
 H         1.687446         1.947331         1.291819
 H         4.385883        -0.820286         0.041112
 H         2.361574        -1.377149         2.092452
 H         2.781971        -2.929841        -0.481169
 H         1.028776        -2.625953        -0.155005
 H         1.303696        -1.223344        -2.695429
