19
Iteration:   696charge 0 multiplicity 1
 C        -0.081726         0.071718         0.143570
 C         1.419252         0.019318         0.260748
 C         2.116199         1.325077         0.399024
 O         3.418134         0.933621         0.184644
 C         3.382689        -0.446117        -0.099748
 C         2.325184        -1.156256         0.897657
 C         1.841491        -2.179468        -0.158286
 C         2.039322        -0.846918        -0.865847
 O         1.944110        -0.837987        -2.222831
 H        -0.660713         0.833326         0.826651
 H        -0.235608         0.299078        -0.902982
 H        -0.724615        -0.845703         0.548809
 H         1.788022         2.068641        -0.371471
 H         2.133393         1.840741         1.343534
 H         4.346383        -0.885083        -0.526435
 H         2.621758        -1.260188         2.017567
 H         2.617096        -2.860994        -0.500438
 H         0.768600        -2.540771        -0.206114
 H         1.100836        -0.487387        -2.459800
