19
Iteration:  4496charge 0 multiplicity 1
 C        -0.243362        -0.205278         0.363692
 C         1.300269        -0.056250         0.239334
 C         1.921242         1.282761         0.198464
 O         3.318627         1.056696         0.046555
 C         3.353567        -0.374708        -0.019123
 C         2.328784        -0.991795         0.953528
 C         2.079635        -2.139304        -0.053946
 C         2.163870        -0.885657        -0.912451
 O         2.074593        -0.730138        -2.297457
 H        -0.848779        -0.262356        -0.627665
 H        -0.485107        -1.152588         0.878926
 H        -0.588401         0.611676         1.025737
 H         1.451709         1.851557        -0.661004
 H         1.568924         1.724416         1.179905
 H         4.384152        -0.908300        -0.212667
 H         2.532438        -1.076118         1.981820
 H         2.818541        -3.031697        -0.177273
 H         1.037709        -2.647501         0.082240
 H         3.041538        -0.735179        -2.616605
