19
Iteration:  4635charge 0 multiplicity 1
 C        -0.187811        -0.052343         0.464058
 C         1.285914        -0.094962         0.134517
 C         1.877403         1.284829         0.089497
 O         3.249885         1.045936        -0.029932
 C         3.274287        -0.418215         0.010489
 C         2.298143        -1.021502         0.955994
 C         2.180149        -2.171503        -0.002749
 C         2.161831        -0.919501        -0.854708
 O         2.131821        -0.741533        -2.238654
 H        -0.526853         0.196176         1.576373
 H        -0.640217         0.662185        -0.307588
 H        -0.637426        -1.100169         0.370836
 H         1.615025         1.883806        -0.757889
 H         1.544811         1.805488         1.005282
 H         4.303711        -0.626077        -0.270014
 H         2.340318        -1.199789         2.044897
 H         3.023373        -2.836936        -0.165133
 H         1.255487        -2.801684        -0.112988
 H         2.985123        -0.983755        -2.578525
