19
Iteration:  3860charge 0 multiplicity 1
 C        -0.204009        -0.314937         0.083538
 C         1.352402        -0.108965         0.260754
 C         1.987454         1.301516         0.491471
 O         3.415803         0.993164         0.311578
 C         3.402642        -0.365969        -0.085010
 C         2.376051        -1.227340         0.913518
 C         2.071576        -2.140709        -0.257662
 C         2.162536        -0.783540        -0.940031
 O         1.808065        -0.518382        -2.234981
 H        -0.847319         0.481902         0.365974
 H        -0.409400        -0.682399        -0.905863
 H        -0.455181        -1.238915         0.612135
 H         1.716468         2.098105        -0.404038
 H         1.929874         1.745021         1.470508
 H         4.408790        -0.626816        -0.313201
 H         2.582480        -1.440747         1.963804
 H         2.776012        -2.950681        -0.577607
 H         1.105908        -2.620911        -0.528959
 H         1.878024         0.470448        -2.418214
