19
Iteration:  1330
 C        -0.271437         0.002503         0.564383
 C         1.285899         0.015558         0.053336
 C         2.091782         1.297024         0.171232
 O         3.401641         0.861432        -0.002401
 C         3.293297        -0.518479        -0.016823
 C         2.205265        -1.056018         0.929383
 C         1.842725        -2.167743        -0.050831
 C         2.189568        -0.927123        -0.896971
 O         2.282203        -0.624876        -2.289318
 H        -0.165443        -0.309390         1.705021
 H        -0.649403         0.957555         0.406441
 H        -0.961151        -0.811266         0.045788
 H         1.773554         1.985578        -0.700948
 H         1.830274         1.795887         1.142110
 H         4.324449        -1.082038        -0.089051
 H         2.430217        -1.159343         2.024441
 H         2.613308        -2.899724        -0.108424
 H         0.893966        -2.662802        -0.215162
 H         1.390239        -0.202012        -2.520750
