19
Iteration:  3082
 C        -0.188468        -0.344979         0.438749
 C         1.272888        -0.008571         0.110935
 C         1.974624         1.335750         0.296023
 O         3.327916         0.973696         0.187787
 C         3.335730        -0.396486        -0.004906
 C         2.306699        -1.011911         0.912039
 C         1.959770        -1.999798        -0.080347
 C         2.167268        -0.826152        -0.968044
 O         2.168235        -0.813694        -2.426315
 H        -0.579510         0.123838         1.326262
 H        -0.896021        -0.042919        -0.472796
 H        -0.481094        -1.365047         0.561202
 H         1.638897         2.081112        -0.571476
 H         1.648854         1.593575         1.298322
 H         4.411302        -0.764349         0.019635
 H         2.592428        -1.078425         2.084625
 H         2.626306        -2.753186        -0.253061
 H         0.908164        -2.337361         0.001508
 H         2.309122         0.153378        -2.562092
