19
Iteration:  4659
 C        -0.249673        -0.125859         0.409251
 C         1.318512        -0.136687         0.194686
 C         1.897733         1.309975         0.085097
 O         3.309160         1.119462         0.032451
 C         3.300162        -0.443521        -0.022642
 C         2.340159        -0.960442         1.005495
 C         2.096339        -2.176386         0.018331
 C         2.179395        -0.949834        -0.870576
 O         2.088300        -0.782167        -2.332484
 H        -0.472043        -0.378633         1.505308
 H        -0.572963         0.919729         0.170191
 H        -0.901085        -0.893018        -0.078560
 H         1.539532         1.694710        -0.827590
 H         1.605531         2.044616         0.871652
 H         4.460849        -0.633286        -0.083753
 H         2.468660        -1.035357         2.025814
 H         2.923794        -2.959746        -0.026258
 H         1.117874        -2.829163         0.012545
 H         2.929999        -0.385538        -2.533580
