19
Iteration:   217charge 0 multiplicity 1
 C        -0.150201         0.162980         0.106791
 C         1.377916         0.002073         0.140861
 C         2.188073         1.345194         0.343482
 O         3.590030         0.831776         0.234586
 C         3.447607        -0.576396         0.008895
 C         2.271264        -1.021297         0.969852
 C         1.890355        -2.215094         0.035888
 C         2.078045        -0.937998        -0.982050
 O         1.675438        -0.646795        -2.318254
 H        -0.572994         0.864131         0.825919
 H        -0.390829         0.402532        -0.868433
 H        -0.686650        -0.834207         0.205654
 H         1.925138         2.066964        -0.536213
 H         2.028884         1.791184         1.352309
 H         4.326423        -1.040199        -0.193894
 H         2.059921        -1.152527         2.002326
 H         2.632224        -3.057576        -0.024980
 H         0.952257        -2.770882         0.073364
 H         2.294254        -1.193645        -2.900076
