19
Iteration:  4040charge 0 multiplicity 1
 C        -0.151322        -0.163276         0.144569
 C         1.361529        -0.163904         0.246391
 C         1.906640         1.233670         0.360162
 O         3.340100         1.027955         0.283450
 C         3.407246        -0.393896        -0.072687
 C         2.323866        -1.145227         0.900195
 C         2.219739        -2.183132        -0.236197
 C         2.214475        -0.829593        -0.926048
 O         1.767777        -0.569271        -2.218740
 H        -0.699346        -0.976143         0.582023
 H        -0.775066         0.554364         0.672133
 H        -0.357835        -0.304863        -0.915114
 H         1.582722         2.120472        -0.310531
 H         1.697814         1.503089         1.397672
 H         4.477133        -0.829409        -0.024907
 H         2.467360        -1.219793         1.930431
 H         3.101415        -2.813898        -0.472070
 H         1.310576        -2.752085        -0.384373
 H         2.131014         0.273310        -2.423938
