19
Iteration:  2669
 C        -0.288585        -0.216330         0.236591
 C         1.308266        -0.088907         0.241379
 C         1.933059         1.332268         0.224554
 O         3.390110         0.982361         0.210381
 C         3.384189        -0.439027         0.019625
 C         2.323761        -1.035695         0.927310
 C         2.133212        -2.183538        -0.160640
 C         2.130717        -0.814845        -0.867062
 O         2.045259        -0.639658        -2.286465
 H        -0.551907         0.208287         1.292573
 H        -0.662218         0.431008        -0.606100
 H        -0.561222        -1.228978         0.178223
 H         1.637073         1.925964        -0.721100
 H         1.720285         2.128208         1.043583
 H         4.328176        -0.878428        -0.143958
 H         2.639351        -1.113101         1.982495
 H         3.051195        -2.678868        -0.425389
 H         1.131724        -2.708349        -0.073158
 H         1.265575        -1.064388        -2.688196
