19
Iteration:  4338
 C        -0.154931        -0.333157         0.321075
 C         1.302055        -0.049965         0.190885
 C         1.888793         1.301938         0.287158
 O         3.387713         1.068892         0.100262
 C         3.397107        -0.366409         0.013350
 C         2.346021        -1.058405         0.915228
 C         2.009113        -2.185180        -0.080677
 C         2.148306        -0.815859        -0.910398
 O         1.992426        -0.657709        -2.302095
 H        -0.474431        -0.654760         1.283906
 H        -0.837294         0.482772        -0.065811
 H        -0.514196        -1.055396        -0.437812
 H         1.587815         2.028688        -0.467284
 H         1.810212         1.740264         1.358993
 H         4.354268        -0.753905        -0.186641
 H         2.410469        -1.156832         2.104438
 H         2.668564        -3.149474        -0.316018
 H         0.955250        -2.589035         0.002808
 H         2.772913        -0.231505        -2.810294
