19
Iteration:  2788charge 0 multiplicity 1
 C        -0.097159        -0.108439         0.178644
 C         1.335488        -0.145448         0.194169
 C         1.925748         1.245871         0.262217
 O         3.348201         1.037886         0.228923
 C         3.315637        -0.354642         0.005324
 C         2.281668        -1.056940         0.929832
 C         2.184423        -2.248089        -0.088834
 C         2.152559        -0.885850        -0.916855
 O         1.920998        -0.591338        -2.288145
 H        -0.509704         0.311552         1.111561
 H        -0.614171         0.444063        -0.619376
 H        -0.411866        -1.096794         0.177643
 H         1.593712         1.881016        -0.538029
 H         1.702349         1.747765         1.125697
 H         4.354749        -0.652329        -0.126313
 H         2.607566        -1.033576         2.025880
 H         3.104277        -2.826720        -0.173217
 H         1.148889        -2.707284         0.053316
 H         1.589554        -1.414126        -2.783540
