19
Iteration:  1637
 C        -0.054363        -0.157664         0.280667
 C         1.401585        -0.030981         0.241334
 C         2.027553         1.342513         0.209573
 O         3.354458         1.004624         0.214416
 C         3.351892        -0.468841        -0.039770
 C         2.240209        -1.088618         1.007757
 C         1.869737        -2.161756        -0.079087
 C         2.192728        -0.845390        -0.948391
 O         2.040010        -0.639490        -2.340060
 H        -0.543794        -0.380150         1.298139
 H        -0.607914         0.711644        -0.091372
 H        -0.541872        -0.908834        -0.440364
 H         1.743397         1.793674        -0.776760
 H         1.724745         1.965193         1.088182
 H         4.298563        -0.796876        -0.349153
 H         2.460677        -1.332594         2.055358
 H         2.602829        -2.962893        -0.261792
 H         0.848033        -2.521777         0.070043
 H         1.414729        -1.323163        -2.566323
