19
Iteration:  3319
 C        -0.175270        -0.340963         0.150275
 C         1.309834        -0.048526         0.223421
 C         1.974809         1.349052         0.300326
 O         3.409165         1.051819         0.216650
 C         3.395287        -0.415412        -0.043989
 C         2.332674        -0.987468         0.944841
 C         2.008713        -2.186378        -0.135552
 C         2.170431        -0.797079        -0.881785
 O         1.879498        -0.730544        -2.254371
 H        -0.452196        -0.605246         1.230578
 H        -0.829110         0.516214        -0.318067
 H        -0.419632        -1.299393        -0.374970
 H         1.714173         2.047843        -0.578023
 H         1.752720         1.978444         1.175448
 H         4.464767        -0.682857        -0.266608
 H         2.631222        -1.082249         1.981264
 H         2.805613        -2.907908        -0.211991
 H         1.011130        -2.782619        -0.023367
 H         2.553480        -0.050693        -2.618986
