19
Iteration:  1945
 C        -0.270285        -0.141541         0.088033
 C         1.313033        -0.118551         0.156707
 C         2.025413         1.275582         0.420909
 O         3.444494         1.028633         0.104496
 C         3.379600        -0.401128         0.019101
 C         2.354594        -1.069978         0.908969
 C         2.076695        -2.217372         0.000992
 C         2.140155        -0.869295        -0.918983
 O         1.831092        -0.581706        -2.260630
 H        -0.718284         0.526829         0.836598
 H        -0.476838         0.080526        -0.950255
 H        -0.564115        -1.218001         0.162291
 H         1.805906         2.191895        -0.099262
 H         1.860205         1.509367         1.476599
 H         4.358145        -0.790663        -0.217253
 H         2.415074        -1.082316         1.955910
 H         3.042474        -2.876703         0.083056
 H         1.211282        -2.864008         0.180414
 H         2.473405        -0.963507        -2.961570
