19
Iteration:  1218
 C        -0.217316         0.057822         0.120989
 C         1.417268        -0.015768         0.297745
 C         2.098373         1.283380         0.277461
 O         3.491284         0.924078         0.208087
 C         3.381109        -0.500333        -0.102751
 C         2.337560        -1.152723         0.968208
 C         1.944937        -2.141745        -0.104773
 C         2.083433        -0.795805        -0.848233
 O         1.839397        -0.781442        -2.268725
 H        -0.526402         1.088485         0.221757
 H        -0.659420        -0.349376        -0.862259
 H        -0.857224        -0.536043         0.877051
 H         1.753966         1.966060        -0.569723
 H         2.063656         1.726072         1.262558
 H         4.289982        -1.091464        -0.141376
 H         2.436876        -1.380644         2.018476
 H         2.562349        -2.972473        -0.407738
 H         0.921516        -2.505045        -0.077301
 H         2.235690         0.095912        -2.571439
