19
Iteration:  1264charge 0 multiplicity 1
 C        -0.109253         0.063566         0.122985
 C         1.364666        -0.016515         0.090085
 C         2.091361         1.241243         0.402198
 O         3.542168         0.945494         0.227633
 C         3.415816        -0.460158         0.060684
 C         2.256195        -1.057674         0.933646
 C         1.970411        -2.163947        -0.049319
 C         2.117395        -0.872505        -0.991456
 O         1.695143        -0.700689        -2.302675
 H        -0.540375         0.898639         0.843046
 H        -0.600587         0.089909        -0.806462
 H        -0.461319        -1.035197         0.438879
 H         1.983191         2.013475        -0.411087
 H         1.882228         1.574172         1.433236
 H         4.483553        -0.940843        -0.114169
 H         2.433811        -1.112706         2.033638
 H         2.826351        -2.778142        -0.197995
 H         1.071435        -2.794882         0.017052
 H         1.895213        -1.484968        -2.782947
