19
Iteration:  4179
 C        -0.187056        -0.149044         0.215943
 C         1.339698        -0.259476         0.256219
 C         1.901004         1.228253         0.306524
 O         3.299429         1.053320         0.172334
 C         3.394217        -0.315582        -0.043136
 C         2.344310        -1.132559         0.943711
 C         2.135673        -2.196425        -0.171810
 C         2.205895        -0.839458        -0.896721
 O         1.893828        -0.603615        -2.256940
 H        -0.355026         0.545409        -0.553891
 H        -0.613844        -1.133728         0.029030
 H        -0.633925         0.430390         1.016813
 H         1.669696         2.044123        -0.430111
 H         1.715764         1.633522         1.386486
 H         4.375137        -0.699906        -0.292891
 H         2.505599        -1.328217         2.012201
 H         3.024226        -2.813147        -0.250885
 H         1.250070        -2.911303        -0.140561
 H         2.411541         0.156055        -2.670550
