19
Iteration:  3977charge 0 multiplicity 1
 C        -0.185000        -0.351791         0.436762
 C         1.290089        -0.155292         0.180826
 C         1.933787         1.291514         0.446855
 O         3.335670         0.999122         0.198928
 C         3.330288        -0.425894        -0.022624
 C         2.286613        -1.133912         0.895906
 C         2.074087        -2.086348        -0.287311
 C         2.136115        -0.736522        -0.994895
 O         2.080726        -0.568381        -2.388325
 H        -0.246075        -0.383408         1.603817
 H        -0.596767         0.609275         0.071558
 H        -0.617349        -1.168333        -0.166486
 H         1.603213         2.126039        -0.150424
 H         1.766200         1.503515         1.579721
 H         4.440027        -0.763641        -0.064212
 H         2.242395        -1.386977         1.927542
 H         2.859444        -2.803928        -0.604112
 H         1.201812        -2.625821        -0.332902
 H         2.345050         0.330479        -2.629192
