19
Iteration:  3067
 C        -0.168712        -0.273768         0.399960
 C         1.323169        -0.095809         0.188300
 C         1.912737         1.319898         0.258870
 O         3.353015         1.052843         0.170348
 C         3.328637        -0.410021         0.010060
 C         2.256367        -0.980745         0.948514
 C         1.980179        -2.198048        -0.123025
 C         2.177102        -0.820778        -0.979214
 O         2.134106        -0.737589        -2.378572
 H        -0.426056         0.367864         1.246975
 H        -0.742087        -0.009642        -0.416245
 H        -0.343816        -1.294833         0.720140
 H         1.631053         2.010995        -0.482943
 H         1.776281         2.052266         1.123639
 H         4.328814        -0.819740        -0.147792
 H         2.177939        -1.058437         1.964712
 H         2.749824        -3.017773        -0.171445
 H         0.978168        -2.694900        -0.132564
 H         2.418460         0.078533        -2.741651
