19
Iteration:  4633
 C        -0.203291        -0.058254         0.461076
 C         1.292867        -0.096190         0.125989
 C         1.894290         1.292636         0.100514
 O         3.246065         1.058194        -0.031351
 C         3.277895        -0.433927         0.010403
 C         2.304516        -1.016713         0.969084
 C         2.167835        -2.182300        -0.015672
 C         2.169939        -0.924463        -0.855524
 O         2.126149        -0.738634        -2.248965
 H        -0.502940         0.193209         1.573922
 H        -0.630764         0.583321        -0.359351
 H        -0.666996        -1.096276         0.447659
 H         1.567518         1.910386        -0.799467
 H         1.590290         1.813576         1.020618
 H         4.240162        -0.623451        -0.195417
 H         2.341185        -1.219560         2.108981
 H         3.091746        -2.754660        -0.125038
 H         1.251956        -2.708707        -0.112551
 H         2.963434        -1.029203        -2.553282
