19
Iteration:  2449
 C        -0.228374        -0.176840         0.286197
 C         1.316883        -0.046221         0.237188
 C         1.934907         1.365956         0.347914
 O         3.411598         1.010303         0.172851
 C         3.328315        -0.413571        -0.064473
 C         2.270383        -1.041995         0.936313
 C         2.103803        -2.188930        -0.112291
 C         2.181866        -0.816691        -0.990601
 O         2.005969        -0.826035        -2.312111
 H        -0.757381         0.432131         1.101475
 H        -0.591475         0.272967        -0.656874
 H        -0.521835        -1.236705         0.169208
 H         1.716066         2.223464        -0.316718
 H         1.741371         1.843603         1.362005
 H         4.382337        -0.902618        -0.320136
 H         2.333789        -1.102776         2.057352
 H         2.942503        -2.821472         0.013382
 H         1.162947        -2.823576        -0.103011
 H         2.072903         0.128606        -2.685210
