19
Iteration:  3421charge 0 multiplicity 1
 C        -0.186771        -0.364473         0.400575
 C         1.271463        -0.011741         0.110266
 C         1.917376         1.353400         0.312274
 O         3.370675         1.087658         0.067027
 C         3.387763        -0.417131        -0.035883
 C         2.307343        -1.067434         0.933829
 C         1.874172        -2.104358        -0.141660
 C         2.238954        -0.827898        -0.893322
 O         2.114681        -0.774727        -2.266873
 H        -0.260124        -0.825504         1.333275
 H        -0.856724         0.565610         0.601059
 H        -0.684903        -0.938635        -0.333055
 H         1.548124         2.068303        -0.517566
 H         1.778852         1.824571         1.274780
 H         4.413246        -0.641316        -0.137296
 H         2.423307        -1.158398         2.064251
 H         2.550115        -2.964372        -0.387682
 H         0.871044        -2.348374        -0.373944
 H         2.783860        -0.164663        -2.486794
