19
Iteration:  1187
 C        -0.120693        -0.074236         0.368115
 C         1.341771        -0.011539         0.163407
 C         2.094548         1.281756         0.218934
 O         3.453772         0.883848         0.022368
 C         3.335911        -0.584650        -0.024117
 C         2.193970        -1.044731         0.955074
 C         1.786741        -2.155304        -0.048850
 C         2.121615        -0.859115        -0.921218
 O         2.146056        -0.603005        -2.296755
 H        -0.587027         0.922323         0.623726
 H        -0.610490        -0.608922        -0.335948
 H        -0.255854        -0.461598         1.444380
 H         1.792303         2.061570        -0.447377
 H         1.882970         1.703124         1.222416
 H         4.289651        -1.181051         0.085357
 H         2.126372        -1.101416         2.058940
 H         2.373465        -3.030834        -0.186009
 H         0.760800        -2.528683        -0.148057
 H         1.650069         0.249589        -2.398282
