19
Iteration:  2406charge 0 multiplicity 1
 C        -0.091712        -0.203086         0.373100
 C         1.345737        -0.015284         0.220566
 C         1.900695         1.323605         0.277957
 O         3.350351         1.011369         0.198664
 C         3.405643        -0.388587        -0.039478
 C         2.217160        -1.052026         0.950429
 C         1.965014        -2.108369        -0.160079
 C         2.234555        -0.844327        -0.943920
 O         2.043418        -0.816384        -2.381088
 H        -0.549798         0.690680         1.029984
 H        -0.675338        -0.386551        -0.520139
 H        -0.319790        -1.105200         0.953945
 H         1.440913         1.928922        -0.523947
 H         1.592693         1.759643         1.323542
 H         4.474043        -0.790305        -0.168957
 H         2.218791        -1.329722         2.047879
 H         2.548395        -2.951680        -0.388567
 H         0.876122        -2.394701        -0.131859
 H         2.427085         0.062307        -2.771986
