19
Iteration:   422charge 0 multiplicity 1
 C        -0.167741         0.073253         0.265752
 C         1.380696         0.033814         0.128291
 C         2.226939         1.383495         0.262047
 O         3.533985         0.847768         0.110528
 C         3.257334        -0.592885        -0.012191
 C         2.229581        -1.106134         0.978716
 C         1.810183        -2.141895        -0.040895
 C         2.079271        -0.879428        -0.890910
 O         1.926498        -0.695823        -2.310351
 H        -0.441147         0.698740         1.144015
 H        -0.638170         0.317263        -0.623816
 H        -0.642687        -0.988903         0.468367
 H         1.951164         2.181333        -0.445583
 H         1.997256         1.701218         1.358150
 H         4.087692        -1.191321        -0.174238
 H         2.353857        -1.281859         2.038977
 H         2.517409        -2.975121        -0.291067
 H         0.838795        -2.569469         0.142224
 H         2.866393        -0.419915        -2.636741
