19
Iteration:  3812charge 0 multiplicity 1
 C        -0.248468        -0.107016         0.323908
 C         1.261058        -0.095663         0.229053
 C         1.912216         1.240823         0.519192
 O         3.306538         1.014746         0.240009
 C         3.344789        -0.415509        -0.049017
 C         2.361378        -1.235273         0.857905
 C         2.199774        -2.231834        -0.289834
 C         2.160779        -0.773895        -0.960898
 O         1.999324        -0.582343        -2.382536
 H        -0.462446         0.679811         1.108874
 H        -0.878523         0.194440        -0.532001
 H        -0.605703        -1.093302         0.648438
 H         1.594002         2.125117        -0.248620
 H         1.814962         1.526010         1.626844
 H         4.450140        -0.717105        -0.302335
 H         2.549918        -1.494708         1.908905
 H         3.055456        -2.892527        -0.585831
 H         1.429179        -2.963078        -0.156151
 H         2.309483         0.285943        -2.676392
