19
Iteration:  2343charge 0 multiplicity 1
 C        -0.195037        -0.187278         0.226724
 C         1.344903        -0.118577         0.201092
 C         1.931706         1.340679         0.261470
 O         3.370635         1.058013        -0.019187
 C         3.337885        -0.470623         0.046131
 C         2.254377        -1.059139         0.965838
 C         2.100673        -2.293202        -0.067809
 C         2.187522        -0.898711        -0.873578
 O         1.949202        -0.569437        -2.241945
 H        -0.540165         0.408818         1.138349
 H        -0.452216         0.243269        -0.702487
 H        -0.691135        -1.071502         0.451868
 H         1.676159         2.085844        -0.481280
 H         2.085142         1.696508         1.251973
 H         4.291522        -0.884256         0.079357
 H         2.403936        -1.261691         2.071500
 H         2.855966        -3.078585        -0.315681
 H         1.059473        -2.678655         0.102087
 H         2.697455         0.115242        -2.465147
