19
Iteration:  1453charge 0 multiplicity 1
 C        -0.207333        -0.064676         0.177213
 C         1.305607        -0.054792         0.232261
 C         2.018370         1.284485         0.239479
 O         3.493643         0.934439         0.072082
 C         3.363046        -0.452762        -0.013608
 C         2.316070        -1.197145         1.060966
 C         1.986810        -2.151123        -0.104376
 C         2.118118        -0.800933        -0.866027
 O         1.937480        -0.559735        -2.195850
 H        -0.525229         0.972917         0.523737
 H        -0.380712        -0.232125        -0.817097
 H        -0.694701        -0.917463         0.588172
 H         1.812070         1.837571        -0.698031
 H         2.058043         1.861774         1.172785
 H         4.248643        -0.934404        -0.231693
 H         2.341954        -1.407766         2.122387
 H         2.669533        -2.874978        -0.513298
 H         0.975234        -2.534081        -0.119740
 H         1.845746        -1.366808        -2.672401
