19
Iteration:  1509
 C        -0.233849        -0.142599         0.497662
 C         1.243800         0.023602         0.078041
 C         2.047719         1.300241         0.271766
 O         3.419045         0.923206         0.150437
 C         3.334328        -0.522590         0.025432
 C         2.194237        -0.980028         0.894964
 C         1.928336        -2.141690        -0.124136
 C         2.204222        -0.836525        -1.031983
 O         2.220043        -0.722143        -2.359846
 H        -0.538125         0.856607         0.991801
 H        -1.024512        -0.237112        -0.159929
 H        -0.140873        -0.814723         1.300401
 H         1.727282         2.148008        -0.345740
 H         1.883836         1.825324         1.233205
 H         4.218377        -1.099829        -0.043016
 H         2.135685        -1.130852         1.987783
 H         2.646236        -2.965109        -0.240165
 H         0.996864        -2.673889         0.087078
 H         1.312203        -0.384270        -2.736820
