19
Iteration:  1785
 C        -0.190262        -0.147304         0.092572
 C         1.317432        -0.080153         0.158274
 C         2.025586         1.279029         0.275438
 O         3.452667         0.953447         0.187669
 C         3.429944        -0.379675         0.040223
 C         2.321969        -1.038216         0.969776
 C         2.036619        -2.237977        -0.130537
 C         2.179032        -0.863557        -0.858243
 O         1.812885        -0.572895        -2.197063
 H        -0.633171         0.606824         0.886713
 H        -0.747687         0.205792        -0.815076
 H        -0.708412        -1.064785         0.269841
 H         1.740568         1.999804        -0.489288
 H         1.836288         1.880025         1.150925
 H         4.415834        -0.754659        -0.220564
 H         2.510960        -1.123016         1.992491
 H         2.771143        -3.006796        -0.068190
 H         1.064849        -2.684597        -0.263552
 H         2.111236        -1.378496        -2.778124
