19
Iteration:  1768charge 0 multiplicity 1
 C        -0.186631        -0.210697         0.140954
 C         1.360258        -0.065929         0.149838
 C         2.086168         1.312908         0.204753
 O         3.517553         0.992586         0.212175
 C         3.353541        -0.485517         0.050147
 C         2.220325        -1.082561         0.976297
 C         2.096058        -2.108543        -0.098972
 C         2.153589        -0.816890        -0.910725
 O         1.732527        -0.598355        -2.201491
 H        -0.747600         0.437986         0.715276
 H        -0.442004        -0.025275        -0.919598
 H        -0.446389        -1.259787         0.515491
 H         1.872501         1.865070        -0.745650
 H         1.865573         1.777881         1.201363
 H         4.296256        -1.025944         0.161671
 H         2.057575        -1.248406         2.105775
 H         3.012246        -2.719437        -0.383775
 H         1.123094        -2.686038         0.005980
 H         2.456983        -0.779680        -2.890473
