19
Iteration:   535
 C        -0.044936         0.132424         0.157467
 C         1.410609        -0.017713         0.198369
 C         2.086113         1.299532         0.481881
 O         3.477361         0.938266         0.091917
 C         3.333035        -0.487466        -0.096862
 C         2.295426        -1.064474         0.913776
 C         1.767894        -2.069266        -0.094498
 C         2.108410        -0.900255        -0.908289
 O         1.941786        -0.939097        -2.265023
 H        -0.398116         0.109264         1.200087
 H        -0.232151         1.103344        -0.394495
 H        -0.598592        -0.655290        -0.284251
 H         1.755675         2.164793        -0.111909
 H         2.044165         1.496000         1.624718
 H         4.437858        -0.894159        -0.157943
 H         2.463837        -1.208060         2.028798
 H         2.402141        -2.992454        -0.150053
 H         0.649997        -2.363883        -0.124262
 H         1.350241        -0.322970        -2.610174
