19
Iteration:  1515charge 0 multiplicity 1
 C        -0.167787        -0.122633         0.521725
 C         1.256498         0.006335         0.079839
 C         2.021765         1.385755         0.324659
 O         3.432129         0.900500         0.133087
 C         3.287684        -0.489635        -0.010330
 C         2.151750        -0.984797         0.896978
 C         1.964390        -2.126748        -0.151163
 C         2.179049        -0.902753        -0.981991
 O         2.216373        -0.753873        -2.373357
 H        -0.631354         0.734923         0.995334
 H        -0.939749        -0.235485        -0.372672
 H        -0.374927        -0.939636         1.333402
 H         1.817016         2.171012        -0.450434
 H         1.859642         1.729424         1.374004
 H         4.244463        -1.116465         0.063533
 H         2.228702        -0.990043         1.985408
 H         2.722047        -2.913576        -0.362112
 H         0.945254        -2.566533        -0.075100
 H         1.499645        -0.261270        -2.736860
