19
Iteration:  1747
 C        -0.138003        -0.221228         0.169237
 C         1.361294        -0.024987         0.235662
 C         2.046731         1.406966         0.208515
 O         3.411959         0.930554         0.228608
 C         3.377122        -0.491012         0.060381
 C         2.276951        -1.040840         0.958892
 C         1.996743        -2.177929        -0.104459
 C         2.094729        -0.844550        -0.906414
 O         1.831054        -0.660687        -2.319415
 H        -0.591833         0.454329         0.801280
 H        -0.403666        -0.139265        -0.862020
 H        -0.219078        -1.172434         0.737240
 H         1.948097         1.857632        -0.772411
 H         1.940513         1.964323         1.141291
 H         4.384446        -0.896432        -0.150180
 H         2.541819        -1.071955         2.087922
 H         2.871923        -2.879585        -0.151986
 H         0.977675        -2.604312        -0.240056
 H         2.517716         0.039711        -2.519100
