19
Iteration:  1311
 C        -0.138900        -0.044476         0.429308
 C         1.298225        -0.036362         0.318707
 C         2.056747         1.347421         0.169271
 O         3.477100         0.889337         0.025211
 C         3.292247        -0.534111        -0.015520
 C         2.238621        -1.050240         0.961604
 C         1.856243        -2.154126        -0.137903
 C         2.023447        -0.837290        -0.895130
 O         2.234037        -0.648180        -2.304324
 H        -0.370818        -0.048731         1.569774
 H        -0.635287         0.819779        -0.036764
 H        -0.539077        -0.895526        -0.162330
 H         1.572428         1.745188        -0.706488
 H         1.979477         1.942156         1.110469
 H         4.265222        -0.965101        -0.188600
 H         2.115684        -1.231528         2.035855
 H         2.559269        -3.043535        -0.193772
 H         0.789190        -2.465981        -0.058686
 H         1.435434        -0.854674        -2.793183
