19
Iteration:    86charge 0 multiplicity 1
 C        -0.140880         0.092590         0.299336
 C         1.348922         0.078120         0.165088
 C         2.198390         1.327965         0.330024
 O         3.542353         0.848491         0.139393
 C         3.284954        -0.591205         0.059523
 C         2.240039        -1.069584         0.916734
 C         1.835389        -2.074055        -0.154696
 C         2.052641        -0.820050        -0.920780
 O         1.929245        -0.867229        -2.333326
 H        -0.416467         0.589843         1.261779
 H        -0.754688         0.434028        -0.510898
 H        -0.451841        -1.027520         0.529424
 H         2.055925         2.039424        -0.538556
 H         2.134328         1.820162         1.356121
 H         4.214850        -1.088390        -0.019610
 H         2.292387        -1.214960         2.010170
 H         2.457484        -2.953557        -0.418355
 H         0.781563        -2.439547        -0.047914
 H         2.362571        -0.046365        -2.788046
