19
Iteration:  2802charge 0 multiplicity 1
 C        -0.221819        -0.072599         0.166939
 C         1.341758        -0.090550         0.238125
 C         1.938243         1.358803         0.259222
 O         3.315612         1.046657         0.249189
 C         3.376312        -0.352498        -0.073662
 C         2.363186        -1.182262         0.978399
 C         2.218201        -2.245623        -0.075796
 C         2.191204        -0.893271        -0.925916
 O         1.862979        -0.614158        -2.257088
 H        -0.700490         0.555657         1.052318
 H        -0.350011         0.434714        -0.790212
 H        -0.818767        -1.063199         0.038194
 H         1.644883         1.868402        -0.693582
 H         1.608739         1.905536         1.091010
 H         4.402508        -0.832335        -0.206209
 H         2.464782        -1.462171         2.068362
 H         3.149926        -2.959055        -0.187850
 H         1.349367        -3.002176        -0.247409
 H         1.957137        -1.468916        -2.719189
