19
Iteration:  3546charge 0 multiplicity 1
 C        -0.137689        -0.326880         0.321273
 C         1.341239        -0.027737         0.171883
 C         1.970502         1.320475         0.383230
 O         3.333469         0.995568         0.087402
 C         3.337796        -0.380489         0.020648
 C         2.278144        -1.077259         0.923677
 C         2.033289        -2.093026        -0.139312
 C         2.148320        -0.790843        -0.942050
 O         1.998914        -0.674155        -2.314706
 H        -0.900391         0.282730         0.872573
 H        -0.527683        -0.509728        -0.641214
 H        -0.319373        -1.304814         0.917671
 H         1.732375         2.050812        -0.453910
 H         1.905482         1.766740         1.357556
 H         4.384695        -0.816199        -0.078215
 H         2.232766        -1.294967         1.980762
 H         2.824336        -2.873758        -0.254154
 H         0.989255        -2.593991        -0.209592
 H         2.751464        -0.185395        -2.653369
