19
Iteration:  2687
 C        -0.108961        -0.066172         0.388022
 C         1.307029        -0.113327         0.153163
 C         1.904085         1.273895         0.214895
 O         3.279173         1.011475         0.163590
 C         3.266522        -0.379063         0.020875
 C         2.283263        -1.126734         0.989271
 C         2.156196        -2.181978        -0.149295
 C         2.193494        -0.855729        -0.957597
 O         2.116359        -0.653819        -2.313976
 H        -0.374172         0.286588         1.331429
 H        -0.671040         0.518248        -0.375973
 H        -0.619355        -1.042373         0.254193
 H         1.658716         1.877041        -0.648802
 H         1.664368         1.710465         1.116841
 H         4.312419        -0.731392        -0.050569
 H         2.161111        -1.352612         2.031682
 H         3.086783        -2.802432        -0.239447
 H         1.283068        -2.870380        -0.184676
 H         1.210846        -0.772968        -2.664062
