19
Iteration:  3746charge 0 multiplicity 1
 C        -0.194217        -0.321027         0.458909
 C         1.313456        -0.139512         0.229010
 C         1.928808         1.254652         0.321487
 O         3.356305         1.009720         0.191451
 C         3.337516        -0.404765        -0.027679
 C         2.294349        -1.058081         0.884844
 C         1.953707        -2.158210        -0.311691
 C         2.153949        -0.768284        -0.951880
 O         2.157754        -0.539941        -2.294854
 H        -0.215701        -1.076633         1.253338
 H        -0.796828         0.450890         0.678482
 H        -0.809899        -0.707302        -0.325406
 H         1.422922         1.833755        -0.580830
 H         1.788355         1.597749         1.354558
 H         4.305767        -0.841158        -0.338522
 H         2.422276        -1.152576         1.998547
 H         2.645736        -2.934955        -0.696732
 H         0.964071        -2.663102        -0.338462
 H         2.655387         0.274898        -2.508851
