19
Iteration:  3322charge 0 multiplicity 1
 C        -0.149232        -0.336451         0.153538
 C         1.326571        -0.052046         0.223929
 C         1.979218         1.353616         0.296351
 O         3.377786         1.034296         0.207480
 C         3.401486        -0.398741        -0.022298
 C         2.330141        -1.001815         0.937836
 C         2.026206        -2.164461        -0.127169
 C         2.160913        -0.803273        -0.882087
 O         1.868915        -0.730043        -2.253356
 H        -0.533722        -0.552704         1.146224
 H        -0.827623         0.539176        -0.240136
 H        -0.370932        -1.169865        -0.410242
 H         1.701268         1.940353        -0.567741
 H         1.759602         1.928561         1.068537
 H         4.409439        -0.721765        -0.185264
 H         2.635165        -1.140597         2.043005
 H         2.859686        -2.881776        -0.350385
 H         1.018193        -2.693741        -0.078365
 H         2.546197        -0.127166        -2.569781
