19
Iteration:  2162
 C        -0.163452        -0.160022         0.243083
 C         1.348104        -0.124788         0.153688
 C         1.939742         1.335998         0.260943
 O         3.338978         0.929575         0.250701
 C         3.341106        -0.437411        -0.057077
 C         2.365834        -1.033280         0.923411
 C         2.087756        -2.155290        -0.110556
 C         2.163966        -0.831496        -0.933077
 O         1.907273        -0.598611        -2.221669
 H        -0.545730         0.677087         0.745275
 H        -0.574830         0.028331        -0.780121
 H        -0.655904        -1.049292         0.774367
 H         1.774260         1.903551        -0.641579
 H         1.861863         1.912977         1.238389
 H         4.298029        -0.788861        -0.337397
 H         2.534393        -1.270655         1.924466
 H         2.880161        -2.877943        -0.251626
 H         1.151257        -2.598257        -0.053510
 H         2.388525        -1.203310        -2.763602
