19
Iteration:  4643
 C        -0.163832        -0.061529         0.444907
 C         1.263970        -0.101561         0.185225
 C         1.813825         1.268852         0.075162
 O         3.282492         1.002176        -0.003620
 C         3.336046        -0.316949        -0.032147
 C         2.280463        -1.031541         0.958441
 C         2.167755        -2.208927        -0.003992
 C         2.128466        -0.904576        -0.894234
 O         2.145544        -0.755823        -2.220722
 H        -0.360327         0.229435         1.535417
 H        -0.709832         0.803453         0.025696
 H        -0.621208        -0.958331        -0.010769
 H         1.514860         1.876715        -0.872940
 H         1.574438         1.874916         0.963454
 H         4.228376        -0.774443        -0.234494
 H         2.374724        -1.013163         2.130033
 H         2.956465        -2.944328        -0.189266
 H         1.329630        -2.832965         0.105142
 H         2.994212        -0.781080        -2.589861
