19
Iteration:  4632
 C        -0.211964        -0.062948         0.459942
 C         1.295473        -0.097039         0.123680
 C         1.900936         1.297434         0.105149
 O         3.245585         1.063245        -0.031448
 C         3.278662        -0.436916         0.010276
 C         2.307002        -1.015116         0.979051
 C         2.161439        -2.187787        -0.022765
 C         2.172989        -0.926449        -0.858218
 O         2.121599        -0.736952        -2.253228
 H        -0.476557         0.197446         1.542622
 H        -0.631172         0.537837        -0.368389
 H        -0.676414        -1.081262         0.476425
 H         1.540919         1.917901        -0.811981
 H         1.616587         1.822457         1.030775
 H         4.258051        -0.644088        -0.162578
 H         2.342861        -1.218336         2.120019
 H         3.125533        -2.721667        -0.104713
 H         1.240080        -2.674540        -0.106273
 H         2.979752        -1.059469        -2.555478
