19
Iteration:  2551
 C        -0.141573        -0.217085         0.419034
 C         1.268152        -0.064922         0.147365
 C         1.911433         1.285552         0.215754
 O         3.387089         1.088974         0.208532
 C         3.397782        -0.365889         0.022190
 C         2.260464        -1.047681         0.910909
 C         1.988033        -2.169310        -0.105908
 C         2.191577        -0.903497        -0.999062
 O         2.033824        -0.676072        -2.319930
 H        -0.495516         0.093986         1.470405
 H        -0.571775         0.378851        -0.361414
 H        -0.449109        -1.247331         0.302566
 H         1.778876         1.973363        -0.577551
 H         1.721396         1.694643         1.244979
 H         4.338210        -0.682966        -0.260509
 H         2.115399        -1.149309         1.983688
 H         2.642957        -3.018648        -0.288617
 H         1.000779        -2.505526        -0.290282
 H         2.727196        -1.191978        -2.686993
