19
Iteration:   346
 C        -0.127399         0.218611         0.250237
 C         1.327608        -0.031721         0.205489
 C         2.167819         1.252028         0.182767
 O         3.526325         0.838010         0.202802
 C         3.316192        -0.576695        -0.071279
 C         2.235330        -1.087748         0.966479
 C         1.857152        -2.152103        -0.001610
 C         2.061813        -0.882522        -0.882215
 O         1.990574        -0.669230        -2.317087
 H        -0.499496         0.354248         1.291996
 H        -0.255959         1.142882        -0.249284
 H        -0.788172        -0.622245        -0.230794
 H         1.952535         1.761141        -0.705999
 H         1.896309         1.884969         1.002807
 H         4.214042        -1.106750        -0.235743
 H         2.467923        -1.161152         2.046651
 H         2.602707        -3.012218        -0.033317
 H         0.792349        -2.429072        -0.106190
 H         1.347664        -1.245184        -2.669776
