19
Iteration:  4905charge 0 multiplicity 1
 C        -0.173943        -0.191823         0.124727
 C         1.349304        -0.007324         0.134556
 C         1.962097         1.362051         0.224033
 O         3.372430         1.131968         0.110843
 C         3.446386        -0.339187         0.038255
 C         2.333816        -0.930670         0.977585
 C         2.116807        -2.166230         0.022496
 C         2.127294        -0.905929        -0.897954
 O         1.847973        -1.064466        -2.215987
 H        -0.346999        -1.287162         0.319780
 H        -0.805900         0.414453         0.790674
 H        -0.560849         0.014104        -0.893374
 H         1.543116         1.951930        -0.558059
 H         1.674237         1.821773         1.174590
 H         4.476073        -0.501346         0.032585
 H         2.427704        -0.871204         2.157829
 H         3.151642        -2.627646        -0.171304
 H         1.104268        -2.516580         0.159548
 H         1.921191        -0.189712        -2.735152
