19
Iteration:  3326
 C        -0.124361        -0.306763         0.168721
 C         1.356656        -0.055014         0.221037
 C         1.984743         1.336386         0.266997
 O         3.342087         1.011211         0.194868
 C         3.387724        -0.366833         0.005839
 C         2.338410        -1.038799         0.945117
 C         2.056836        -2.128385        -0.113488
 C         2.143534        -0.822883        -0.887875
 O         1.857072        -0.728711        -2.249993
 H        -0.666248        -0.490169         1.104025
 H        -0.696751         0.486469        -0.115300
 H        -0.340799        -1.151651        -0.588254
 H         1.652234         1.842167        -0.653923
 H         1.716874         2.031608         1.266240
 H         4.395779        -0.822318        -0.072435
 H         2.536497        -1.191136         1.994528
 H         2.864506        -2.804795        -0.483956
 H         1.096967        -2.521677        -0.156542
 H         2.579718        -0.161545        -2.604490
