19
Iteration:  4856charge 0 multiplicity 1
 C        -0.220619        -0.084561         0.272890
 C         1.295063        -0.065232         0.240656
 C         1.871355         1.375669         0.136282
 O         3.327161         1.063978        -0.069818
 C         3.286429        -0.324367         0.017997
 C         2.332945        -0.953938         1.029746
 C         2.190068        -2.206443         0.025589
 C         2.093230        -0.976811        -0.866336
 O         2.121809        -0.971747        -2.216071
 H        -0.672586        -0.989215        -0.181179
 H        -0.643930        -0.148805         1.322147
 H        -0.589235         0.916019        -0.114707
 H         1.538075         1.898338        -0.864712
 H         1.779716         2.070261         1.016966
 H         4.366784        -0.690054        -0.250881
 H         2.459271        -1.041109         2.079609
 H         2.997233        -2.810137        -0.194663
 H         1.177560        -2.609056         0.091437
 H         2.276650        -0.106091        -2.535806
