19
Iteration:  2023charge 0 multiplicity 1
 C        -0.228495        -0.114713         0.461828
 C         1.280853        -0.107655         0.108244
 C         1.899051         1.287918         0.166995
 O         3.331638         0.931841         0.216735
 C         3.365892        -0.450366        -0.090008
 C         2.249585        -1.038546         0.909148
 C         2.101018        -2.195462        -0.040312
 C         2.161855        -0.844186        -0.967463
 O         2.184824        -0.585490        -2.344501
 H        -0.249268         0.132504         1.577506
 H        -0.798118         0.585408        -0.068896
 H        -0.515133        -1.110662         0.495066
 H         1.761526         1.823962        -0.713059
 H         1.586055         1.751617         1.041901
 H         4.332592        -0.882367         0.100869
 H         2.304961        -1.201146         1.912785
 H         2.997291        -2.906724        -0.171728
 H         1.152328        -2.721187         0.047163
 H         1.268925        -0.306141        -2.688516
