19
Iteration:  2882
 C        -0.213294        -0.272985         0.365667
 C         1.264294        -0.074789         0.210503
 C         1.937129         1.287081         0.265060
 O         3.389959         1.002995         0.052467
 C         3.330835        -0.408899        -0.021412
 C         2.308080        -1.050786         1.001968
 C         2.020066        -2.115576        -0.179246
 C         2.082377        -0.809486        -0.918395
 O         2.151298        -0.698479        -2.275017
 H        -0.497704         0.245808         1.311693
 H        -0.878808         0.353635        -0.316280
 H        -0.620651        -1.336313         0.439796
 H         1.547287         2.051645        -0.423912
 H         1.872563         1.708704         1.213419
 H         4.190129        -0.873828        -0.433934
 H         2.264145        -1.206956         2.042370
 H         2.878390        -2.767040        -0.415191
 H         1.093333        -2.593578        -0.077254
 H         2.793764         0.037909        -2.396902
