19
Iteration:  3921charge 0 multiplicity 1
 C        -0.200334        -0.205748         0.469685
 C         1.270189        -0.196010         0.268926
 C         1.890562         1.222690         0.454996
 O         3.300556         1.002770         0.215166
 C         3.329803        -0.395731        -0.022284
 C         2.373365        -1.203802         0.824567
 C         2.059468        -2.177722        -0.356742
 C         2.110485        -0.766101        -1.018203
 O         2.149063        -0.522722        -2.375706
 H        -0.633607         0.749912         1.045823
 H        -0.856494        -0.058493        -0.434896
 H        -0.505562        -1.068110         1.153393
 H         1.451636         1.820104        -0.259039
 H         1.692681         1.773180         1.438726
 H         4.484006        -0.736630        -0.009039
 H         2.503761        -1.300348         1.877668
 H         2.908099        -2.741024        -0.817351
 H         1.152851        -2.677909        -0.398217
 H         2.659780         0.373574        -2.407824
