19
Iteration:  1824
 C        -0.251746        -0.049233         0.314260
 C         1.317414        -0.067570         0.267611
 C         1.969154         1.266062         0.415341
 O         3.368666         0.992637         0.094300
 C         3.291331        -0.361310        -0.105728
 C         2.316371        -1.062799         0.967090
 C         1.967230        -2.168184        -0.147426
 C         2.192359        -0.864847        -0.941994
 O         2.181677        -0.747240        -2.324491
 H        -0.513844         0.284959         1.299177
 H        -0.499796         0.658819        -0.487701
 H        -0.621402        -1.051453        -0.046572
 H         1.525912         2.014214        -0.349421
 H         1.828134         1.832237         1.406393
 H         4.314247        -0.795424        -0.239935
 H         2.341446        -1.105316         2.099318
 H         2.787891        -2.940334        -0.429736
 H         0.990786        -2.730705        -0.052709
 H         1.479427        -1.247758        -2.670062
