19
Iteration:  2457charge 0 multiplicity 1
 C        -0.173540        -0.148162         0.237687
 C         1.320832        -0.095773         0.226875
 C         1.947750         1.325174         0.356604
 O         3.380521         1.013019         0.138627
 C         3.331919        -0.382426        -0.008427
 C         2.313525        -1.015772         0.923850
 C         2.087335        -2.167330        -0.079935
 C         2.112435        -0.838772        -0.914571
 O         1.996305        -0.799750        -2.329698
 H        -0.591198         0.262671         1.078341
 H        -0.438024         0.509223        -0.656121
 H        -0.767110        -1.108945         0.103083
 H         1.447551         1.845788        -0.483141
 H         1.838733         1.691794         1.337257
 H         4.307532        -1.024509        -0.080802
 H         2.528080        -1.080332         1.995634
 H         3.016059        -2.807055        -0.290997
 H         1.204002        -2.830900        -0.218769
 H         2.195358         0.152352        -2.554108
