19
Iteration:   983
 C        -0.189620         0.037102         0.607043
 C         1.289396        -0.006059         0.177898
 C         2.093984         1.284153         0.393013
 O         3.418213         0.889168         0.127088
 C         3.265463        -0.519189         0.002115
 C         2.126817        -1.058287         0.837386
 C         1.898645        -2.110460        -0.237793
 C         2.130191        -0.853906        -1.061912
 O         2.205981        -0.782099        -2.395453
 H        -0.936531         0.289752        -0.244688
 H        -0.455450        -0.864065         1.206559
 H        -0.197016         0.802579         1.370021
 H         1.784951         2.086882        -0.382277
 H         2.047484         1.797996         1.379905
 H         4.064179        -1.225521        -0.211505
 H         1.933040        -1.132811         1.880583
 H         2.706218        -2.908521        -0.248442
 H         0.986336        -2.711027        -0.292517
 H         2.758461         0.011687        -2.710403
