19
Iteration:  3524charge 0 multiplicity 1
 C        -0.231119        -0.328148         0.145778
 C         1.367064        -0.103354         0.191815
 C         1.940625         1.344680         0.399687
 O         3.454882         1.045822         0.211026
 C         3.352420        -0.388739        -0.069528
 C         2.389951        -0.981319         0.967389
 C         2.026636        -2.122529        -0.138612
 C         2.117994        -0.817599        -0.919957
 O         1.920817        -0.761677        -2.294138
 H        -0.749968         0.122120         1.063913
 H        -0.701449         0.033107        -0.725156
 H        -0.642444        -1.400933         0.393642
 H         1.684835         2.175995        -0.340862
 H         1.725559         1.629145         1.366120
 H         4.415115        -0.829116        -0.213699
 H         2.585933        -0.970256         2.025688
 H         2.859487        -2.853472        -0.339213
 H         0.992165        -2.631968        -0.109006
 H         2.311832         0.091582        -2.632481
