19
Iteration:   104
 C        -0.136047         0.128729         0.436889
 C         1.372221         0.031420         0.263971
 C         2.106451         1.381151         0.293621
 O         3.489387         0.868392         0.137215
 C         3.370594        -0.532106        -0.087553
 C         2.185041        -1.104079         0.909670
 C         1.705734        -2.093969        -0.206732
 C         2.136056        -0.842422        -0.906236
 O         2.021364        -0.886021        -2.305468
 H        -0.426225         0.561180         1.388375
 H        -0.515138         0.776690        -0.374127
 H        -0.673720        -0.771258         0.266863
 H         1.880220         2.047409        -0.605385
 H         2.032151         1.845033         1.280507
 H         4.396649        -1.007243        -0.196351
 H         2.316851        -1.394491         2.016694
 H         2.370386        -2.975708        -0.368584
 H         0.663007        -2.455298        -0.352822
 H         2.956625        -0.828016        -2.728761
