19
Iteration:  2636charge 0 multiplicity 1
 C        -0.055055        -0.320771         0.102342
 C         1.357124        -0.074762         0.229706
 C         1.925388         1.353660         0.341027
 O         3.383050         1.021646         0.157131
 C         3.405211        -0.435476        -0.026858
 C         2.326957        -1.022070         0.977778
 C         1.954600        -2.172347        -0.049387
 C         2.171689        -0.790041        -0.911877
 O         1.933810        -0.590674        -2.277238
 H        -0.588132         0.178189         0.991796
 H        -0.595737         0.060575        -0.789326
 H        -0.398386        -1.283995         0.138048
 H         1.614545         2.027031        -0.530318
 H         1.837905         1.770240         1.368861
 H         4.377894        -0.830250        -0.159137
 H         2.459608        -1.092381         2.054917
 H         2.727610        -2.902495        -0.246363
 H         1.045893        -2.769881         0.041790
 H         1.475965        -1.349310        -2.820764
