19
Iteration:  4551
 C        -0.199588        -0.255401         0.068595
 C         1.348426        -0.116714         0.194783
 C         1.963718         1.328827         0.204327
 O         3.390233         1.085075         0.117690
 C         3.411932        -0.337666         0.029038
 C         2.333526        -1.003163         1.020403
 C         2.164949        -2.113055         0.002626
 C         2.219267        -0.877813        -0.865826
 O         1.736855        -0.748614        -2.205427
 H        -0.379953         0.791410        -0.165486
 H        -0.677781        -0.965545        -0.579728
 H        -0.646309        -0.512563         0.996160
 H         1.630865         1.982240        -0.673927
 H         1.651177         1.861515         1.152116
 H         4.552977        -0.716019        -0.091406
 H         2.487859        -1.075818         2.030839
 H         3.010669        -2.858592        -0.248154
 H         1.223438        -2.803254        -0.023850
 H         2.253872        -1.430028        -2.756194
