19
Iteration:  1656charge 0 multiplicity 1
 C        -0.206511        -0.071361         0.393630
 C         1.276689        -0.061538         0.180062
 C         1.951994         1.329831         0.302253
 O         3.414790         0.958386         0.171969
 C         3.344145        -0.408436        -0.019274
 C         2.318927        -1.036080         0.863302
 C         1.939141        -2.144484        -0.129955
 C         2.099535        -0.894582        -0.936090
 O         2.197113        -0.745776        -2.348619
 H        -0.373208        -0.202537         1.359040
 H        -0.572681         0.910739         0.061470
 H        -0.714207        -0.911862        -0.099839
 H         1.712668         1.944392        -0.507459
 H         1.849764         1.733225         1.271295
 H         4.331389        -0.924359        -0.142726
 H         2.422001        -1.009850         1.924948
 H         2.723403        -2.943379        -0.142271
 H         0.886513        -2.519451        -0.031330
 H         1.321757        -0.890227        -2.641196
