19
Iteration:  4257
 C        -0.177010        -0.240324         0.382912
 C         1.342605        -0.120064         0.157626
 C         1.899066         1.308460         0.358691
 O         3.286401         1.050520         0.195058
 C         3.397488        -0.419174        -0.018924
 C         2.323457        -1.072111         0.943683
 C         2.038077        -2.081395        -0.191572
 C         2.150815        -0.875040        -0.986476
 O         2.081907        -0.731437        -2.354973
 H        -0.703557         0.701555         0.681977
 H        -0.767781        -0.467819        -0.532328
 H        -0.241100        -1.038137         1.136178
 H         1.516882         2.088764        -0.395614
 H         1.889719         1.920700         1.382146
 H         4.479306        -0.788782        -0.134356
 H         2.410799        -1.310844         1.926890
 H         2.842524        -2.807439        -0.386043
 H         1.016912        -2.526496        -0.239419
 H         2.024477         0.263198        -2.557948
