19
Iteration:  4355
 C        -0.177527        -0.372830         0.135104
 C         1.401860        -0.065214         0.237844
 C         1.986431         1.345224         0.370251
 O         3.335867         1.029836         0.158646
 C         3.337510        -0.387533        -0.071718
 C         2.356441        -1.014878         0.973627
 C         2.035690        -2.079928        -0.082424
 C         2.183181        -0.836741        -0.925727
 O         1.868951        -0.725802        -2.283154
 H        -0.631215        -0.802011         1.142367
 H        -0.712384         0.547048         0.275516
 H        -0.368774        -0.980066        -0.770524
 H         1.685978         1.981602        -0.498625
 H         1.801558         1.807401         1.317669
 H         4.425155        -0.738646        -0.081546
 H         2.538349        -1.115032         1.978163
 H         2.833516        -2.736053        -0.179089
 H         1.068377        -2.523964        -0.053446
 H         2.646199        -0.212298        -2.704006
