19
Iteration:   476charge 0 multiplicity 1
 C        -0.135989         0.098169         0.425750
 C         1.343270         0.009600         0.158023
 C         2.143587         1.340987         0.055461
 O         3.536060         0.789535         0.066626
 C         3.302952        -0.570563         0.116779
 C         2.179712        -1.129061         0.970375
 C         1.848312        -2.186597        -0.181033
 C         2.022966        -0.830083        -0.832527
 O         2.107305        -0.588136        -2.233571
 H        -0.408857         0.750569         1.274008
 H        -0.736134         0.374530        -0.390906
 H        -0.473938        -1.016962         0.553046
 H         1.860166         1.767744        -0.965121
 H         1.870280         2.169660         0.865415
 H         4.202995        -1.072534         0.014953
 H         2.032834        -1.236966         2.035888
 H         2.747222        -2.782526        -0.364689
 H         0.946134        -2.736654        -0.192220
 H         1.274989        -1.079843        -2.634341
