19
Iteration:  4130
 C        -0.208086        -0.373080         0.561823
 C         1.292226        -0.079490         0.201756
 C         1.920791         1.310878         0.372538
 O         3.332171         1.012659         0.129974
 C         3.277957        -0.392225        -0.034899
 C         2.216717        -1.047585         0.849505
 C         2.048015        -2.121364        -0.240802
 C         2.200007        -0.801921        -0.962136
 O         2.206929        -0.655405        -2.378437
 H        -0.858163        -0.544996        -0.351090
 H        -0.163110        -1.110005         1.362107
 H        -0.714740         0.566286         0.763019
 H         1.634669         1.981954        -0.530466
 H         1.763592         1.851311         1.287518
 H         4.254602        -0.989936        -0.057006
 H         2.180944        -1.086485         1.934087
 H         2.682274        -3.004369        -0.423644
 H         1.058523        -2.333803        -0.346976
 H         2.621943         0.160080        -2.564103
