19
Iteration:  3343charge 0 multiplicity 1
 C        -0.133643        -0.166565         0.199927
 C         1.345430        -0.162909         0.245638
 C         1.876474         1.273312         0.212832
 O         3.359153         1.054841         0.145336
 C         3.351795        -0.397720         0.073477
 C         2.351240        -1.112594         1.019769
 C         2.139724        -2.149604        -0.173458
 C         2.208604        -0.788319        -0.909164
 O         1.848882        -0.698663        -2.268841
 H        -0.509586        -0.561875         1.142351
 H        -0.456443         1.000976        -0.008511
 H        -0.515103        -0.751154        -0.564674
 H         1.545922         1.938826        -0.622339
 H         1.658118         1.795741         1.033078
 H         4.371559        -0.662965        -0.099257
 H         2.281221        -1.349822         2.140946
 H         2.971926        -2.856553        -0.149739
 H         1.163309        -2.757530        -0.022860
 H         2.533649        -0.293158        -2.820500
