19
Iteration:  3408
 C        -0.195501        -0.328486         0.428395
 C         1.335027        -0.056730         0.244865
 C         1.939230         1.379306         0.289466
 O         3.317058         1.059843         0.043118
 C         3.354120        -0.358102         0.013619
 C         2.249509        -1.022471         0.890732
 C         1.954823        -2.147059        -0.183800
 C         2.223273        -0.869097        -0.936020
 O         2.126578        -0.739855        -2.278833
 H        -0.416975        -0.971799         1.248922
 H        -0.702243         0.707757         0.345211
 H        -0.622707        -0.815016        -0.376355
 H         1.567002         2.203820        -0.490559
 H         1.844141         1.803368         1.407907
 H         4.258862        -0.832486        -0.171756
 H         2.340848        -1.280732         1.988995
 H         2.543601        -3.021447        -0.203205
 H         0.872219        -2.488791        -0.074754
 H         2.946334        -0.440321        -2.797045
