19
Iteration:  3139charge 0 multiplicity 1
 C        -0.296176        -0.036550         0.219724
 C         1.326708        -0.133622         0.168765
 C         1.864447         1.223463         0.356045
 O         3.285268         1.015713         0.093179
 C         3.389953        -0.428367         0.016929
 C         2.375735        -1.051160         0.962758
 C         2.228490        -2.237069        -0.102282
 C         2.202728        -0.829305        -0.890227
 O         1.960290        -0.732059        -2.294178
 H        -0.657664         0.298959         1.246811
 H        -0.516291         0.870491        -0.430451
 H        -0.877280        -0.955799        -0.211208
 H         1.489268         1.977183        -0.453368
 H         1.622982         1.716126         1.251249
 H         4.380579        -0.713781        -0.151450
 H         2.638977        -1.030583         2.086345
 H         3.071314        -2.936887        -0.329458
 H         1.340940        -2.723085         0.001839
 H         2.524983         0.010578        -2.498764
