19
Iteration:  1094charge 0 multiplicity 1
 C        -0.131979         0.056941         0.154081
 C         1.363552        -0.038692         0.153027
 C         2.163016         1.297640         0.465291
 O         3.505046         0.874429         0.240702
 C         3.355082        -0.493686        -0.002828
 C         2.190613        -1.098618         0.887214
 C         2.017177        -2.178508        -0.132958
 C         2.111438        -0.814873        -0.934485
 O         1.765971        -0.658560        -2.351639
 H        -0.686496         0.237869        -0.761846
 H        -0.717234        -0.853564         0.677685
 H        -0.413911         0.924779         0.706713
 H         2.092806         2.255783        -0.152552
 H         2.116181         1.741615         1.473926
 H         4.345057        -1.000647         0.061595
 H         2.248566        -1.224254         1.997014
 H         2.902102        -2.873573        -0.313529
 H         1.051590        -2.747869        -0.163347
 H         1.948946        -1.526021        -2.747220
