19
Iteration:  1112
 C        -0.173207         0.151725         0.361446
 C         1.367555        -0.036798         0.125075
 C         2.037301         1.268923         0.383660
 O         3.465319         0.947452         0.254283
 C         3.416500        -0.513691         0.017732
 C         2.312692        -1.121237         0.900296
 C         1.888959        -2.164378        -0.222217
 C         2.118767        -0.906968        -0.987659
 O         1.959736        -0.699978        -2.329990
 H        -0.600263         0.613846        -0.626404
 H        -0.554055        -0.805798         0.374450
 H        -0.503752         0.880526         1.143910
 H         1.717248         2.022491        -0.348188
 H         1.717799         1.663955         1.404163
 H         4.387372        -1.048567        -0.238581
 H         2.457378        -1.317054         1.960667
 H         2.488454        -3.075679        -0.310991
 H         0.802537        -2.357523        -0.241493
 H         1.725364        -1.516650        -2.767128
