19
Iteration:  2299
 C        -0.213682        -0.192967         0.275888
 C         1.342266         0.007048         0.278858
 C         1.959270         1.465988         0.342982
 O         3.433641         1.007915         0.268465
 C         3.331142        -0.375841        -0.065793
 C         2.343878        -1.022602         0.921998
 C         2.028672        -2.163585        -0.144270
 C         2.118227        -0.900227        -0.992897
 O         1.968924        -0.899908        -2.371623
 H        -0.777444        -0.346630         1.268327
 H        -0.577386         0.603948        -0.315761
 H        -0.389080        -1.124783        -0.155183
 H         1.633135         1.933500        -0.602681
 H         1.746573         1.960711         1.270036
 H         4.325461        -0.789866        -0.164803
 H         2.470272        -1.024845         2.063854
 H         2.871593        -2.883709        -0.287952
 H         1.051501        -2.760994        -0.141148
 H         2.341035         0.034944        -2.606478
