19
Iteration:  1340charge 0 multiplicity 1
 C        -0.218060         0.048923         0.561746
 C         1.225379        -0.016110         0.050481
 C         2.012375         1.317732         0.163482
 O         3.433418         0.874464         0.030773
 C         3.332579        -0.565494         0.013501
 C         2.210177        -1.016314         0.890520
 C         1.913209        -2.244453        -0.049253
 C         2.147821        -0.928370        -0.962903
 O         2.268190        -0.646645        -2.302472
 H        -0.097990        -0.221022         1.686558
 H        -0.777103         0.916293         0.656753
 H        -0.940905        -0.679828        -0.013031
 H         1.750772         2.148617        -0.629337
 H         1.964385         1.702920         1.198026
 H         4.473333        -0.942774        -0.089670
 H         2.089165        -1.120632         2.012808
 H         2.553542        -3.038833         0.158429
 H         0.856109        -2.473731        -0.108334
 H         1.489028         0.053639        -2.474128
