19
Iteration:  3316charge 0 multiplicity 1
 C        -0.207660        -0.342982         0.157138
 C         1.304216        -0.044466         0.216641
 C         1.969944         1.348231         0.292827
 O         3.435470         1.064385         0.223845
 C         3.386404        -0.420354        -0.064355
 C         2.337991        -0.986504         0.949473
 C         1.988546        -2.198557        -0.133176
 C         2.172387        -0.802414        -0.888934
 O         1.899087        -0.723031        -2.258530
 H        -0.410784        -0.590403         1.231108
 H        -0.743732         0.393820        -0.320548
 H        -0.440709        -1.376160        -0.357886
 H         1.730092         2.075413        -0.543168
 H         1.744658         2.023210         1.349793
 H         4.446081        -0.678616        -0.309632
 H         2.590262        -1.031869         1.973701
 H         2.795472        -2.946104        -0.101757
 H         1.102618        -2.756883         0.003233
 H         2.460087        -0.058043        -2.645029
