19
Iteration:   271charge 0 multiplicity 1
 C        -0.184124         0.194224         0.313652
 C         1.316121        -0.002148         0.242197
 C         2.175972         1.327973         0.300788
 O         3.491966         0.839227         0.130596
 C         3.288054        -0.553413        -0.070149
 C         2.267319        -1.099193         0.965504
 C         1.724547        -2.186443        -0.028071
 C         2.123738        -0.879381        -0.987407
 O         2.076060        -0.688293        -2.373321
 H        -0.403691         1.081659         0.931985
 H        -0.592932         0.402297        -0.625172
 H        -0.689591        -0.705679         0.809193
 H         1.847742         2.091632        -0.445042
 H         2.117213         1.776710         1.268556
 H         4.190762        -0.994708        -0.205327
 H         2.630214        -1.339989         1.960181
 H         2.362139        -3.143817         0.010555
 H         0.649801        -2.419697         0.109129
 H         2.318695        -1.634551        -2.697395
