19
Iteration:  1075charge 0 multiplicity 1
 C        -0.168364        -0.027648         0.016568
 C         1.359563         0.040437         0.235872
 C         2.193537         1.270799         0.422295
 O         3.612392         0.830030         0.216337
 C         3.292851        -0.532348        -0.022315
 C         2.234348        -1.060601         0.969280
 C         1.998562        -2.127067        -0.159555
 C         2.093506        -0.817669        -0.913324
 O         1.693855        -0.609928        -2.224762
 H        -0.296622        -0.278072        -0.994533
 H        -0.610153        -0.870496         0.637328
 H        -0.843590         0.828466         0.275099
 H         1.856994         2.132806        -0.186707
 H         2.108760         1.565455         1.472147
 H         4.204336        -0.977727        -0.308922
 H         2.290226        -1.163872         2.071611
 H         2.868553        -2.755734        -0.281350
 H         1.156548        -2.806616        -0.156208
 H         2.366652        -0.994370        -2.894393
