19
Iteration:    71
 C        -0.173669         0.023956         0.285964
 C         1.362320        -0.010980         0.146521
 C         2.244641         1.351034         0.294190
 O         3.591832         0.810918         0.182644
 C         3.386080        -0.517931        -0.073842
 C         2.131297        -1.007894         1.008527
 C         1.811896        -2.171036        -0.054009
 C         2.079649        -0.885198        -0.949420
 O         1.901832        -0.760008        -2.354086
 H        -0.513412         0.802384         0.954712
 H        -0.428867         0.462494        -0.706808
 H        -0.691779        -0.858749         0.477723
 H         2.011816         2.340384        -0.343234
 H         2.072392         1.725445         1.323254
 H         4.314443        -1.130182        -0.289408
 H         2.110086        -1.047037         2.152612
 H         2.669529        -2.875648        -0.042310
 H         0.807487        -2.628184        -0.154900
 H         1.702932         0.145041        -2.450079
