19
Iteration:  3570
 C        -0.205194        -0.216501         0.464295
 C         1.265029        -0.135249         0.206178
 C         1.904332         1.245219         0.268836
 O         3.317236         1.063637         0.085882
 C         3.355776        -0.394586        -0.034144
 C         2.287348        -1.099855         0.942271
 C         2.061664        -2.230677        -0.194181
 C         2.174577        -0.863100        -0.939139
 O         2.128133        -0.556278        -2.304277
 H        -0.716110         0.814076         0.620813
 H        -0.800752        -0.614125        -0.442825
 H        -0.596202        -0.644733         1.413548
 H         1.571965         1.906298        -0.510964
 H         1.880502         1.781488         1.148760
 H         4.286037        -0.834316        -0.159038
 H         2.510608        -1.232675         2.034059
 H         2.780732        -2.988504        -0.448729
 H         0.941639        -2.673351        -0.153050
 H         2.947145        -0.143202        -2.505209
