19
Iteration:  3920
 C        -0.200953        -0.218321         0.466867
 C         1.272873        -0.192830         0.255834
 C         1.898035         1.230437         0.464132
 O         3.304369         1.003635         0.217763
 C         3.339336        -0.396615        -0.027983
 C         2.370625        -1.195597         0.821506
 C         2.059038        -2.188032        -0.356382
 C         2.112108        -0.767802        -1.025895
 O         2.141720        -0.520554        -2.361984
 H        -0.640810         0.718345         1.035637
 H        -0.857714        -0.088249        -0.454094
 H        -0.546810        -1.058124         1.168101
 H         1.448673         1.876306        -0.308121
 H         1.697023         1.784633         1.437617
 H         4.457042        -0.738771         0.044119
 H         2.513271        -1.308537         1.894887
 H         2.880638        -2.723278        -0.816598
 H         1.114935        -2.669971        -0.386366
 H         2.638129         0.369242        -2.412508
