19
Iteration:   165charge 0 multiplicity 1
 C        -0.152131         0.071616         0.333094
 C         1.343631        -0.024168         0.226536
 C         2.209739         1.270283         0.147738
 O         3.625634         0.876983        -0.007562
 C         3.308505        -0.544840         0.072674
 C         2.107910        -1.099597         0.989613
 C         1.805013        -2.199386        -0.062373
 C         2.063940        -0.870883        -0.890161
 O         1.940477        -0.573748        -2.245687
 H        -0.520365         0.072288         1.386222
 H        -0.571701         0.981699        -0.212022
 H        -0.569940        -0.806318        -0.155220
 H         1.880575         1.852327        -0.754041
 H         2.070851         2.008635         0.984579
 H         4.212632        -1.162597         0.195445
 H         2.172137        -1.278256         1.999584
 H         2.558261        -2.925708        -0.299855
 H         0.813715        -2.588285        -0.091811
 H         2.712731        -1.090986        -2.729679
