19
Iteration:  2577
 C        -0.208014        -0.038898         0.343032
 C         1.252373        -0.079658         0.252709
 C         1.935825         1.261854         0.304584
 O         3.271307         1.010353         0.167483
 C         3.266091        -0.396629         0.014928
 C         2.364016        -1.071671         0.915221
 C         2.156725        -2.167906        -0.165106
 C         2.204885        -0.896296        -0.994270
 O         2.053054        -0.679856        -2.317800
 H        -0.515502         0.546922         1.213978
 H        -0.631829         0.440155        -0.637797
 H        -0.595122        -1.134365         0.556353
 H         1.601609         1.956633        -0.564947
 H         1.834251         1.779743         1.268148
 H         4.349507        -0.776719        -0.179489
 H         2.457513        -1.180209         2.010291
 H         3.025518        -2.913435        -0.386665
 H         1.163232        -2.739684        -0.153934
 H         2.507504        -1.441577        -2.696603
