19
Iteration:  1028
 C        -0.072530        -0.020828         0.295606
 C         1.369676        -0.091004         0.275177
 C         2.076747         1.251324         0.245195
 O         3.428262         0.827300         0.113452
 C         3.396387        -0.522732        -0.079864
 C         2.225604        -1.124378         0.945041
 C         1.795337        -2.148192        -0.120981
 C         2.102289        -0.827377        -0.880125
 O         1.997411        -0.524454        -2.272610
 H        -0.467022        -0.224810        -0.755232
 H        -0.617633        -0.713904         1.113522
 H        -0.430683         0.952804         0.525214
 H         1.654857         1.854955        -0.668613
 H         1.826126         1.933569         1.073973
 H         4.432378        -1.015283        -0.046157
 H         2.391599        -1.356456         2.009935
 H         2.364984        -3.103781        -0.386791
 H         0.752865        -2.532574        -0.131525
 H         2.615175         0.301769        -2.271307
