19
Iteration:  1318charge 0 multiplicity 1
 C        -0.169886        -0.041311         0.489591
 C         1.323310        -0.059510         0.251082
 C         2.047909         1.312220         0.154531
 O         3.448006         0.896697         0.005003
 C         3.284704        -0.539730        -0.023033
 C         2.184686        -1.050339         0.986357
 C         1.859898        -2.152421        -0.117909
 C         2.081531        -0.851285        -0.946710
 O         2.261231        -0.640069        -2.282156
 H        -0.464929        -0.091290         1.589264
 H        -0.654371         0.868759         0.192895
 H        -0.757094        -0.861114        -0.085487
 H         1.821615         1.983684        -0.748501
 H         2.044769         1.927960         1.072850
 H         4.319060        -1.082154        -0.114240
 H         2.219457        -1.101104         2.104018
 H         2.539378        -2.924899        -0.362211
 H         0.846263        -2.488106         0.069305
 H         1.460054        -0.603091        -2.738637
