19
Iteration:  1772
 C        -0.222986        -0.208351         0.111040
 C         1.351100        -0.103365         0.156096
 C         2.082736         1.313706         0.209153
 O         3.513181         1.003558         0.207474
 C         3.391118        -0.475010         0.053310
 C         2.215300        -1.072294         0.963691
 C         2.098653        -2.124206        -0.100016
 C         2.142686        -0.821837        -0.906020
 O         1.739364        -0.588280        -2.185835
 H        -0.681693         0.551464         0.898742
 H        -0.417670         0.006786        -0.917768
 H        -0.409879        -1.178774         0.488145
 H         1.915623         1.848413        -0.707221
 H         1.878771         1.675898         1.209002
 H         4.376381        -1.029288         0.071469
 H         2.158144        -1.173783         2.033578
 H         2.948088        -2.754597        -0.291187
 H         1.140870        -2.592924        -0.136317
 H         2.394809        -0.944223        -2.757921
