19
Iteration:   338charge 0 multiplicity 1
 C        -0.166195         0.178567         0.275541
 C         1.353308        -0.003053         0.272025
 C         2.213761         1.232100         0.137519
 O         3.501515         0.779352         0.139553
 C         3.330052        -0.531188         0.031486
 C         2.193115        -1.050158         1.015673
 C         1.877561        -2.145973        -0.078670
 C         2.069453        -0.860609        -0.878131
 O         1.992694        -0.651274        -2.337320
 H        -0.483364         0.364047         1.329850
 H        -0.451769         1.127487        -0.204934
 H        -0.773730        -0.662701        -0.133831
 H         2.006091         1.707226        -0.840826
 H         2.102328         1.955012         0.909616
 H         4.139316        -1.134600        -0.174879
 H         2.229873        -1.247366         2.037434
 H         2.631120        -3.011108        -0.129013
 H         0.854191        -2.541458        -0.168357
 H         1.448273        -1.295162        -2.685919
