19
Iteration:  1289
 C        -0.160665        -0.045631         0.263944
 C         1.326994        -0.038136         0.270480
 C         2.113230         1.388425         0.249377
 O         3.454468         0.918671         0.157008
 C         3.338237        -0.535430        -0.088860
 C         2.272062        -1.111482         0.976087
 C         1.863375        -2.123126        -0.103149
 C         2.144659        -0.826506        -0.936319
 O         1.994664        -0.677227        -2.259496
 H        -0.584535         0.418172         1.231101
 H        -0.598290         0.515544        -0.553793
 H        -0.575703        -1.028826        -0.012436
 H         1.896264         2.015949        -0.607792
 H         2.052095         1.858837         1.262470
 H         4.376889        -0.875274        -0.194516
 H         2.557397        -1.178496         2.041109
 H         2.554508        -2.951116        -0.470055
 H         0.817695        -2.463646         0.070491
 H         1.601720        -1.519770        -2.625328
