19
Iteration:   646charge 0 multiplicity 1
 C        -0.162403         0.008252         0.498217
 C         1.295606         0.027652         0.131605
 C         2.094310         1.349348         0.242154
 O         3.511702         0.845728         0.068932
 C         3.250574        -0.581459        -0.015941
 C         2.120310        -1.015361         0.919874
 C         1.940803        -2.178561        -0.091829
 C         2.086607        -0.891733        -0.969106
 O         2.108452        -0.596858        -2.302388
 H        -0.455775         0.897197         1.015393
 H        -0.894713         0.091827        -0.368493
 H        -0.355609        -0.791490         1.103987
 H         2.126966         2.095872        -0.546805
 H         2.125090         1.830075         1.296041
 H         4.203766        -1.245058        -0.108319
 H         2.251941        -1.136855         1.994610
 H         2.707267        -2.978795        -0.197947
 H         0.982696        -2.770741        -0.061533
 H         1.933906        -1.437971        -2.900715
