19
Iteration:   377charge 0 multiplicity 1
 C        -0.107315         0.186280         0.158564
 C         1.347999         0.034321         0.124719
 C         2.207866         1.303336         0.411861
 O         3.500346         0.879442         0.158154
 C         3.354529        -0.520808        -0.026118
 C         2.300822        -1.108751         0.956684
 C         1.805792        -2.126095        -0.027695
 C         2.051659        -0.883385        -0.910849
 O         1.934817        -0.881194        -2.343943
 H        -0.462627         0.368289         1.175523
 H        -0.405124         0.943412        -0.551744
 H        -0.623983        -0.722312        -0.282415
 H         2.022637         2.184070        -0.272841
 H         2.072833         1.637282         1.516273
 H         4.401298        -0.834945        -0.171016
 H         2.457774        -1.140895         2.078202
 H         2.351903        -3.061667        -0.116397
 H         0.733714        -2.343979        -0.043482
 H         1.015166        -0.484099        -2.531150
