19
Iteration:  1849
 C        -0.281519        -0.176143         0.481808
 C         1.265981         0.030176         0.111288
 C         2.027009         1.330811         0.343295
 O         3.396324         0.990168         0.073765
 C         3.285675        -0.408231         0.061172
 C         2.191402        -1.020560         0.913685
 C         1.992384        -2.180786        -0.176635
 C         2.188878        -0.815263        -0.959630
 O         2.245276        -0.809237        -2.392403
 H        -0.140470         0.036749         1.587777
 H        -0.808148         0.589181         0.011049
 H        -0.631438        -1.070906         0.158094
 H         1.710846         2.197926        -0.234036
 H         1.860521         1.708133         1.399404
 H         4.250929        -0.900944        -0.001055
 H         2.181925        -1.259995         1.920369
 H         2.823015        -2.822834        -0.008709
 H         1.129207        -2.803701        -0.220703
 H         1.384402        -0.540016        -2.748920
