19
Iteration:  3413charge 0 multiplicity 1
 C        -0.208788        -0.360525         0.426354
 C         1.296094        -0.012721         0.173859
 C         1.917329         1.386722         0.305493
 O         3.343454         1.081693         0.045622
 C         3.366779        -0.385496         0.018637
 C         2.260046        -1.040663         0.887608
 C         1.907433        -2.140123        -0.167399
 C         2.261795        -0.868792        -0.895211
 O         2.119950        -0.755308        -2.263567
 H        -0.368925        -0.857875         1.442370
 H        -0.632433         0.616526         0.503038
 H        -0.589001        -0.907664        -0.544367
 H         1.619268         2.089407        -0.365320
 H         1.822216         1.829907         1.223030
 H         4.390758        -0.806862        -0.368664
 H         2.452091        -1.264030         1.921027
 H         2.596925        -3.073924        -0.304189
 H         0.861683        -2.289409        -0.264089
 H         2.877209        -0.347317        -2.672370
