19
Iteration:  1868
 C        -0.089497        -0.173942         0.493106
 C         1.312594        -0.030018         0.113393
 C         1.949706         1.302588         0.218451
 O         3.350705         0.976744         0.187954
 C         3.309609        -0.483535        -0.021314
 C         2.165395        -0.971439         0.892758
 C         1.981189        -2.117995        -0.108979
 C         2.089352        -0.873407        -0.949651
 O         2.246281        -0.742311        -2.367011
 H        -0.105018        -0.108564         1.617605
 H        -0.762486         0.576430        -0.014157
 H        -0.513567        -1.261102         0.201454
 H         1.617263         2.066337        -0.598304
 H         1.756082         1.792408         1.263654
 H         4.316746        -0.960981        -0.101154
 H         2.123263        -1.037054         2.053568
 H         2.811196        -2.987634        -0.238829
 H         0.882630        -2.446390        -0.122944
 H         1.764457        -0.065131        -2.778127
