19
Iteration:  3933charge 0 multiplicity 1
 C        -0.214293        -0.106599         0.532843
 C         1.300575        -0.173283         0.317370
 C         1.836162         1.165222         0.421489
 O         3.248984         1.001627         0.205484
 C         3.285942        -0.393551        -0.043295
 C         2.336847        -1.238954         0.883171
 C         2.122487        -2.144776        -0.391624
 C         2.133112        -0.760342        -0.966196
 O         2.207371        -0.524347        -2.443523
 H        -0.392085         0.744039         1.321481
 H        -0.709703        -0.060712        -0.450299
 H        -0.614850        -1.071829         0.955773
 H         1.447684         1.770039        -0.264698
 H         1.709483         1.572999         1.473771
 H         4.274781        -0.767124        -0.560656
 H         2.455625        -1.608706         1.876020
 H         3.012499        -2.827151        -0.542607
 H         1.219884        -2.669924        -0.386847
 H         2.736657         0.260758        -2.585134
