19
Iteration:  4049
 C        -0.209938        -0.192499         0.168303
 C         1.370249        -0.179495         0.208434
 C         1.924716         1.276914         0.398218
 O         3.356115         1.040444         0.249057
 C         3.374005        -0.341520        -0.005730
 C         2.344849        -1.177172         0.918215
 C         2.223348        -2.189056        -0.254544
 C         2.131570        -0.848286        -0.936907
 O         1.824801        -0.589127        -2.254279
 H        -0.646439        -1.108327         0.518158
 H        -0.421844         0.791934         0.743396
 H        -0.527402         0.295703        -0.812340
 H         1.425631         1.911076        -0.270406
 H         1.759000         1.580329         1.383152
 H         4.344783        -0.868756        -0.167103
 H         2.498369        -1.330276         2.009932
 H         3.204361        -2.712587        -0.458818
 H         1.359752        -3.039973        -0.296774
 H         2.250348         0.221463        -2.436400
