19
Iteration:  3074
 C        -0.173007        -0.321250         0.430740
 C         1.296828        -0.070784         0.143086
 C         1.974229         1.344837         0.291949
 O         3.313968         1.021872         0.178829
 C         3.351858        -0.421831         0.007511
 C         2.265695        -0.973190         0.942222
 C         1.957938        -2.104124        -0.106060
 C         2.163557        -0.825680        -0.969264
 O         2.155450        -0.755461        -2.417481
 H        -0.508207         0.372361         1.272310
 H        -0.792960         0.024052        -0.460138
 H        -0.399138        -1.463080         0.639914
 H         1.678157         1.907939        -0.681648
 H         1.718335         1.742053         1.260042
 H         4.351701        -0.772814        -0.070354
 H         2.375699        -1.051049         2.079959
 H         2.737937        -2.995511        -0.192730
 H         0.982530        -2.480054         0.001497
 H         2.356417         0.066064        -2.840572
