19
Iteration:   153charge 0 multiplicity 1
 C        -0.177327         0.123222         0.402762
 C         1.319372        -0.003037         0.076747
 C         2.207210         1.311442         0.186015
 O         3.497346         0.782000         0.016440
 C         3.260057        -0.589725        -0.007410
 C         2.128967        -1.025082         1.001570
 C         1.893923        -2.180294        -0.081583
 C         2.104302        -0.935055        -0.886358
 O         2.028099        -0.583327        -2.218053
 H        -0.222545         0.100656         1.517968
 H        -0.662396         1.056412         0.065658
 H        -0.836359        -0.698207         0.012948
 H         1.959858         1.971172        -0.726910
 H         2.175793         1.823359         1.207856
 H         4.162301        -1.142237        -0.126763
 H         2.077073        -1.022572         2.034546
 H         2.589275        -3.010842        -0.099410
 H         0.895275        -2.577438        -0.113826
 H         2.671560        -0.950841        -2.774497
