19
Iteration:  4539
 C        -0.151983        -0.138407         0.125406
 C         1.349992        -0.112584         0.130707
 C         1.879547         1.309361         0.216729
 O         3.349463         1.043864         0.094936
 C         3.353006        -0.327362         0.040179
 C         2.386084        -0.998137         0.996377
 C         2.234835        -2.228451        -0.042723
 C         2.174942        -0.889694        -0.857724
 O         1.785068        -0.723051        -2.161191
 H        -0.629280         0.637501        -0.372290
 H        -0.353642        -0.973397        -0.521866
 H        -0.619291        -0.120184         1.071450
 H         1.544482         1.867691        -0.685083
 H         1.779700         1.927881         1.159664
 H         4.418538        -0.857107        -0.008422
 H         2.359105        -1.001753         2.047856
 H         3.183298        -2.864745        -0.114094
 H         1.169717        -2.700210         0.034808
 H         2.324390        -1.271315        -2.776470
