19
Iteration:  1385
 C        -0.248576        -0.003293         0.308401
 C         1.350983         0.000691         0.262570
 C         2.072344         1.390820         0.288980
 O         3.477484         0.923263         0.184827
 C         3.362229        -0.434127        -0.057275
 C         2.310930        -1.096550         0.883261
 C         1.910598        -2.157377        -0.174399
 C         2.176575        -0.834793        -0.888212
 O         1.937464        -0.890954        -2.258091
 H        -0.760805         0.053373         1.321140
 H        -0.606777         0.799804        -0.235042
 H        -0.545165        -0.791465        -0.452076
 H         1.732216         1.938904        -0.629956
 H         1.811161         1.864315         1.233598
 H         4.362408        -0.988799        -0.143569
 H         2.343745        -1.254631         1.981987
 H         2.547161        -2.856897        -0.621776
 H         0.909655        -2.454520         0.055577
 H         2.403891        -0.072900        -2.734393
