19
Iteration:  3335
 C        -0.117620        -0.243267         0.201617
 C         1.379616        -0.093561         0.238763
 C         1.921393         1.302303         0.217406
 O         3.339635         1.013621         0.170103
 C         3.329536        -0.373129         0.050838
 C         2.368796        -1.109511         0.979205
 C         2.116030        -2.067641        -0.133868
 C         2.149469        -0.824147        -0.901934
 O         1.851143        -0.715789        -2.253607
 H        -0.561847        -0.622764         1.082312
 H        -0.429634         0.720304        -0.198459
 H        -0.386947        -0.897187        -0.637843
 H         1.621014         1.859146        -0.613499
 H         1.768958         1.901869         1.173225
 H         4.340858        -0.738820         0.026022
 H         2.271320        -1.283838         2.090278
 H         2.897792        -2.875579        -0.398706
 H         1.173314        -2.532247        -0.123507
 H         2.533169        -0.239581        -2.803772
