19
Iteration:  2098charge 0 multiplicity 1
 C        -0.099944        -0.194966         0.237066
 C         1.352408        -0.038996         0.107614
 C         1.990299         1.320341         0.392363
 O         3.383606         1.028548         0.187746
 C         3.295266        -0.394728        -0.043351
 C         2.292597        -1.024883         0.904812
 C         2.046543        -2.198229        -0.028082
 C         2.065643        -0.859603        -0.960801
 O         2.044840        -0.676932        -2.317773
 H        -0.287615        -0.126421         1.341522
 H        -0.726671         0.550243        -0.305074
 H        -0.373506        -1.234006        -0.157543
 H         1.475103         2.104465        -0.285075
 H         1.812755         1.635581         1.473991
 H         4.236056        -0.762375        -0.420730
 H         2.299480        -1.058064         1.916558
 H         2.913233        -2.889354        -0.125310
 H         1.156610        -2.749892         0.108874
 H         1.385695        -1.245780        -2.707359
