19
Iteration:  4018charge 0 multiplicity 1
 C        -0.153103        -0.373963         0.095754
 C         1.396771        -0.148048         0.237090
 C         1.966677         1.292260         0.412272
 O         3.377099         1.021155         0.293459
 C         3.394885        -0.364518         0.020627
 C         2.440164        -1.176926         0.910411
 C         2.053936        -2.103547        -0.210255
 C         2.124004        -0.750134        -0.934373
 O         1.814370        -0.574097        -2.305416
 H        -0.707173        -0.877513         0.870073
 H        -0.681807         0.532401         0.442004
 H        -0.466245        -0.709090        -0.895744
 H         1.544041         1.985721        -0.511533
 H         1.810508         1.827340         1.362957
 H         4.393336        -0.860518        -0.235868
 H         2.558828        -1.340122         1.942614
 H         2.788115        -2.867526        -0.523266
 H         1.119658        -2.622120        -0.108643
 H         1.950780         0.426943        -2.446346
