19
Iteration:  3143charge 0 multiplicity 1
 C        -0.306602        -0.044894         0.198643
 C         1.315219        -0.160452         0.159547
 C         1.888140         1.217971         0.336613
 O         3.278100         1.041348         0.115419
 C         3.378090        -0.408501        -0.014473
 C         2.396677        -1.062547         0.959055
 C         2.225830        -2.229643        -0.064040
 C         2.179176        -0.861491        -0.901344
 O         1.953077        -0.710320        -2.265057
 H        -0.603732         0.323361         1.232134
 H        -0.463018         0.822701        -0.393807
 H        -0.856115        -0.936255        -0.263483
 H         1.612049         1.911738        -0.558938
 H         1.801784         1.700091         1.380660
 H         4.439510        -0.759782        -0.141905
 H         2.584198        -0.955056         1.962122
 H         3.110069        -2.919190        -0.360248
 H         1.218891        -2.812513        -0.024934
 H         2.585403         0.064710        -2.447634
