19
Iteration:   650
 C        -0.178845         0.036920         0.465382
 C         1.281387         0.018439         0.137804
 C         2.130447         1.353688         0.277126
 O         3.514448         0.849863         0.068257
 C         3.292578        -0.574240        -0.009588
 C         2.138572        -1.019258         0.951427
 C         1.944464        -2.215801        -0.076730
 C         2.076204        -0.899916        -0.995398
 O         2.097310        -0.597326        -2.364105
 H        -0.439588         0.902527         1.106455
 H        -0.866862         0.025891        -0.360898
 H        -0.419910        -0.804196         1.228834
 H         2.005431         2.151764        -0.474546
 H         1.958941         1.732738         1.240927
 H         4.109087        -1.211278        -0.018171
 H         2.074813        -1.063120         2.034659
 H         2.779792        -2.929815        -0.138166
 H         1.033397        -2.739841        -0.006875
 H         1.820680        -1.350693        -2.813292
