19
Iteration:   557charge 0 multiplicity 1
 C        -0.257642         0.166681         0.185481
 C         1.314986         0.025364         0.282643
 C         2.253430         1.351047         0.410952
 O         3.523697         0.888425         0.057882
 C         3.374385        -0.514395        -0.009766
 C         2.173270        -1.072643         0.986939
 C         2.013282        -2.173654        -0.110949
 C         2.096979        -0.892956        -0.894719
 O         1.868255        -0.885186        -2.351641
 H        -0.854876         0.116580         1.110429
 H        -0.483461         1.058906        -0.462528
 H        -0.581447        -0.679924        -0.343467
 H         1.799891         2.096902        -0.253484
 H         2.269958         1.709572         1.514725
 H         4.467524        -0.956123        -0.039349
 H         2.321892        -1.302813         2.092314
 H         2.745828        -3.012661        -0.212363
 H         0.945631        -2.621205        -0.067205
 H         1.531138         0.002505        -2.771545
