19
Iteration:     6charge 0 multiplicity 1
 C        -0.110849         0.150058         0.252119
 C         1.349730         0.011852         0.216458
 C         2.194109         1.252863         0.252582
 O         3.538657         0.806232         0.092234
 C         3.305320        -0.535597        -0.003211
 C         2.206953        -1.113114         0.934320
 C         1.792368        -2.151219        -0.098999
 C         2.094018        -0.881266        -0.888043
 O         1.900322        -0.634401        -2.230498
 H        -0.411392         0.663946         1.174990
 H        -0.543423         0.686893        -0.613998
 H        -0.553409        -0.877786         0.208226
 H         1.897309         1.926895        -0.635559
 H         2.186510         2.022004         1.074216
 H         4.274193        -1.032239        -0.250290
 H         2.400607        -1.135078         2.025766
 H         2.576343        -2.938084        -0.006672
 H         0.736920        -2.445942         0.015418
 H         2.484928        -1.277628        -2.684091
