19
Iteration:   242charge 0 multiplicity 1
 C        -0.101241         0.224268         0.198297
 C         1.339675         0.003594         0.161542
 C         2.188695         1.281433         0.356735
 O         3.563041         0.852027         0.085340
 C         3.313878        -0.545383         0.074983
 C         2.161593        -1.057602         0.952772
 C         1.930903        -2.148699        -0.215456
 C         2.104134        -0.814246        -0.885454
 O         1.790153        -0.797982        -2.228540
 H        -0.290709         1.137529         0.791381
 H        -0.517602         0.318505        -0.855744
 H        -0.640945        -0.556132         0.626823
 H         1.812356         2.157438        -0.285402
 H         2.090152         1.438972         1.485988
 H         4.249638        -1.184455        -0.020646
 H         2.266249        -1.308741         1.977438
 H         2.739535        -2.832116        -0.213653
 H         1.064729        -2.745532        -0.334030
 H         2.373905        -1.462710        -2.525946
