19
Iteration:   142
 C        -0.174713         0.165025         0.455312
 C         1.302798         0.055844         0.108523
 C         2.087880         1.305076         0.173672
 O         3.452388         0.737486         0.051757
 C         3.344327        -0.650900        -0.013060
 C         2.182860        -1.005794         0.910371
 C         1.835002        -2.204567        -0.018208
 C         2.117334        -0.901161        -0.943331
 O         2.076357        -0.612144        -2.283599
 H        -0.254286         0.204379         1.575690
 H        -0.529503         1.150144         0.114830
 H        -0.853421        -0.690170         0.126597
 H         2.022423         2.314171        -0.420965
 H         1.910267         1.726509         1.231642
 H         4.258517        -1.130875        -0.212978
 H         2.240301        -1.024040         1.939984
 H         2.728669        -2.836623        -0.012207
 H         0.886077        -2.694369        -0.029278
 H         2.837159        -1.045077        -2.615878
