19
Iteration:  4495
 C        -0.245638        -0.213266         0.371746
 C         1.308872        -0.054349         0.229886
 C         1.928030         1.290240         0.194166
 O         3.308272         1.059014         0.048035
 C         3.360588        -0.377054        -0.021316
 C         2.321912        -0.990267         0.951545
 C         2.065001        -2.136625        -0.056291
 C         2.165037        -0.890850        -0.909787
 O         2.081072        -0.731903        -2.298143
 H        -0.832867        -0.274693        -0.553665
 H        -0.465334        -1.157098         0.876679
 H        -0.604738         0.628214         0.977918
 H         1.459856         1.851400        -0.641062
 H         1.580521         1.725676         1.195175
 H         4.370982        -0.921678        -0.199947
 H         2.569921        -1.107128         2.005177
 H         2.855424        -2.997993        -0.197875
 H         1.015356        -2.641338         0.084249
 H         3.027547        -0.717109        -2.592049
