19
Iteration:  1249charge 0 multiplicity 1
 C        -0.110434         0.050712         0.106817
 C         1.449944        -0.006843         0.136275
 C         2.145882         1.347068         0.376435
 O         3.485503         0.911508         0.267169
 C         3.376631        -0.478477         0.026701
 C         2.248396        -1.053577         0.932001
 C         2.094985        -2.216866        -0.105164
 C         2.102534        -0.878658        -0.935693
 O         1.595080        -0.754543        -2.304169
 H        -0.404543         1.011334         0.424005
 H        -0.499132         0.091408        -1.041157
 H        -0.687585        -0.701969         0.680137
 H         1.823152         2.297818        -0.205412
 H         2.042473         1.565538         1.454619
 H         4.280908        -1.005838         0.079047
 H         2.161300        -1.178850         1.999853
 H         2.976013        -2.892394        -0.162165
 H         1.081062        -2.633250        -0.101040
 H         2.288355        -1.079754        -2.903756
