19
Iteration:  3297charge 0 multiplicity 1
 C        -0.192885        -0.333924         0.267222
 C         1.297989        -0.084540         0.143161
 C         2.000075         1.306428         0.367060
 O         3.401225         1.011779         0.162574
 C         3.338088        -0.368220        -0.037386
 C         2.310342        -0.995335         0.917129
 C         2.059455        -2.099277        -0.017958
 C         2.124879        -0.824611        -0.940602
 O         2.016310        -0.728565        -2.367890
 H        -0.714809        -0.240847         1.303189
 H        -0.764187         0.308585        -0.534885
 H        -0.510226        -1.419800         0.017781
 H         1.673024         2.180082        -0.284748
 H         1.785652         1.755274         1.321274
 H         4.394375        -0.780938        -0.166697
 H         2.365265        -1.126645         1.988514
 H         2.722999        -2.895785        -0.291693
 H         0.982762        -2.559996         0.014952
 H         2.187489         0.190515        -2.393338
