19
Iteration:  1775
 C        -0.233052        -0.189403         0.104299
 C         1.339927        -0.119339         0.163064
 C         2.079837         1.300527         0.220085
 O         3.505002         0.996512         0.202090
 C         3.424181        -0.453066         0.060623
 C         2.222398        -1.055671         0.954343
 C         2.092513        -2.144197        -0.107212
 C         2.136934        -0.830681        -0.891784
 O         1.745160        -0.577721        -2.177493
 H        -0.576487         0.550545         0.903779
 H        -0.510327         0.026584        -0.974351
 H        -0.460908        -1.203468         0.439884
 H         1.884335         1.933490        -0.671294
 H         1.850092         1.720693         1.200730
 H         4.378648        -0.963756        -0.038847
 H         2.288515        -1.128324         2.007489
 H         2.911292        -2.863967        -0.189819
 H         1.108695        -2.600061        -0.267640
 H         2.418208        -1.112905        -2.758953
