19
Iteration:  1115
 C        -0.156150         0.164737         0.376005
 C         1.369727        -0.063545         0.132474
 C         2.018639         1.256129         0.382599
 O         3.455573         0.959604         0.249961
 C         3.416631        -0.527436        -0.001576
 C         2.311893        -1.121306         0.890990
 C         1.876398        -2.150114        -0.217160
 C         2.100269        -0.889668        -0.963663
 O         1.996199        -0.703213        -2.338650
 H        -0.614592         0.660327        -0.515890
 H        -0.655603        -0.896395         0.350253
 H        -0.476367         0.793969         1.161725
 H         1.763159         2.035376        -0.425575
 H         1.732829         1.760576         1.343112
 H         4.387713        -1.054049        -0.213130
 H         2.518318        -1.324481         1.962935
 H         2.440523        -3.134239        -0.332322
 H         0.766924        -2.303369        -0.286006
 H         1.722379        -1.515094        -2.742857
