19
Iteration:  2161
 C        -0.158257        -0.155841         0.237368
 C         1.350808        -0.116435         0.161111
 C         1.939892         1.345067         0.252994
 O         3.337322         0.928283         0.257927
 C         3.340366        -0.435781        -0.064676
 C         2.366071        -1.044781         0.924766
 C         2.091750        -2.156307        -0.114670
 C         2.158335        -0.823602        -0.933386
 O         1.908859        -0.606784        -2.219526
 H        -0.539583         0.649138         0.748838
 H        -0.580693         0.036777        -0.789585
 H        -0.641364        -1.024321         0.778239
 H         1.715883         1.907657        -0.626834
 H         1.871195         1.873582         1.236050
 H         4.278230        -0.777294        -0.341177
 H         2.541182        -1.283055         1.974214
 H         2.895227        -2.865286        -0.263018
 H         1.135764        -2.626504        -0.074571
 H         2.366905        -1.228565        -2.734740
