19
Iteration:  1398
 C        -0.172547        -0.065496         0.162701
 C         1.339107        -0.028717         0.203188
 C         2.117476         1.299312         0.360006
 O         3.527337         1.013198         0.220488
 C         3.390899        -0.436212        -0.032525
 C         2.316896        -1.060196         0.934043
 C         1.908847        -2.133942        -0.122687
 C         2.045293        -0.850117        -0.927730
 O         1.818191        -0.847521        -2.281366
 H        -0.699884         0.076842         1.224415
 H        -0.457297         0.757080        -0.504214
 H        -0.618895        -1.014725        -0.160514
 H         1.893531         2.049295        -0.453305
 H         2.051649         1.877191         1.326564
 H         4.359837        -0.827484        -0.183490
 H         2.536735        -1.164020         1.990632
 H         2.641084        -2.947319        -0.228008
 H         0.909901        -2.551053        -0.197792
 H         2.553024        -0.458581        -2.683314
