19
Iteration:  3153
 C        -0.207516        -0.068582         0.151682
 C         1.262414        -0.201702         0.193750
 C         1.945860         1.243358         0.282747
 O         3.340528         1.053627         0.156716
 C         3.328565        -0.324264        -0.091490
 C         2.407133        -1.079495         0.951143
 C         2.174380        -2.202938        -0.023557
 C         2.119527        -0.962432        -0.896927
 O         1.959431        -0.651241        -2.223440
 H        -0.646992         0.062335         1.238704
 H        -0.511529         0.718720        -0.513446
 H        -0.852805        -1.023318        -0.208393
 H         1.448608         2.017194        -0.508876
 H         1.710070         1.681187         1.297991
 H         4.344359        -0.740613        -0.186650
 H         2.446597        -1.174523         1.974643
 H         3.144135        -2.853648        -0.184441
 H         1.250513        -2.866831         0.002539
 H         2.554430         0.040679        -2.573324
