19
Iteration:  4810charge 0 multiplicity 1
 C        -0.086122        -0.331481         0.477206
 C         1.337727        -0.028033         0.071987
 C         1.894268         1.403726         0.016665
 O         3.314271         1.085709        -0.020723
 C         3.269760        -0.396067        -0.013430
 C         2.259644        -0.867171         1.029572
 C         1.906745        -2.177380         0.117120
 C         2.153498        -0.925243        -0.904096
 O         2.179355        -0.862565        -2.307228
 H        -0.484641        -1.289583        -0.044752
 H        -0.287835        -0.555221         1.542178
 H        -0.663933         0.554335         0.201000
 H         1.789238         2.204007        -0.861860
 H         1.835030         1.912222         1.010420
 H         4.205416        -1.004902         0.122109
 H         2.365350        -0.684936         2.054099
 H         2.767633        -2.809124         0.117729
 H         0.846178        -2.479432         0.196713
 H         2.954182        -0.410861        -2.565334
