19
Iteration:  3739charge 0 multiplicity 1
 C        -0.240481        -0.268096         0.435208
 C         1.316033        -0.122286         0.193455
 C         1.901221         1.221030         0.319957
 O         3.333601         0.963385         0.186380
 C         3.333828        -0.458057        -0.024335
 C         2.367832        -1.055964         0.873602
 C         2.030936        -2.154587        -0.305973
 C         2.147261        -0.760844        -0.920101
 O         2.119548        -0.519929        -2.292523
 H        -0.491622        -1.088297         1.147954
 H        -0.863022         0.593478         1.048374
 H        -0.689491        -0.551163        -0.548763
 H         1.424173         1.834446        -0.410045
 H         1.693539         1.742566         1.242953
 H         4.353383        -0.974118        -0.256190
 H         2.454627        -1.093057         1.922837
 H         2.979433        -2.868054        -0.477584
 H         1.071768        -2.624074        -0.317898
 H         2.593169         0.270306        -2.440402
