19
Iteration:   505charge 0 multiplicity 1
 C        -0.219535         0.052210         0.333988
 C         1.308945         0.015513         0.156284
 C         2.129747         1.398095         0.321140
 O         3.573048         0.818567         0.158659
 C         3.322975        -0.541958        -0.091094
 C         2.251208        -1.058567         0.931655
 C         1.806396        -2.132752         0.005135
 C         2.129036        -0.886525        -0.918663
 O         2.054443        -0.776799        -2.403888
 H        -0.482852         0.398142         1.334117
 H        -0.737950         0.825742        -0.385678
 H        -0.618354        -0.913794         0.234619
 H         1.910634         2.052965        -0.517702
 H         1.998142         1.878151         1.230197
 H         4.393242        -1.031832        -0.193894
 H         2.350622        -1.039218         2.056692
 H         2.572241        -2.906830         0.046234
 H         0.750733        -2.518840        -0.019238
 H         1.145682        -0.426831        -2.651951
