19
Iteration:  3747
 C        -0.187533        -0.332511         0.461012
 C         1.309802        -0.137298         0.233028
 C         1.929693         1.260366         0.324911
 O         3.358740         1.016033         0.190854
 C         3.334365        -0.396798        -0.029770
 C         2.285224        -1.065593         0.890963
 C         1.942347        -2.154784        -0.310133
 C         2.154250        -0.772385        -0.957137
 O         2.162564        -0.540474        -2.297921
 H        -0.189327        -1.076879         1.265775
 H        -0.778292         0.481330         0.641727
 H        -0.803853        -0.733410        -0.298959
 H         1.456202         1.847792        -0.574863
 H         1.797379         1.591121         1.329664
 H         4.347075        -0.833518        -0.343991
 H         2.411091        -1.173366         1.979635
 H         2.651229        -2.974762        -0.724258
 H         0.961413        -2.641748        -0.333108
 H         2.645551         0.248247        -2.504987
