19
Iteration:  1693charge 0 multiplicity 1
 C        -0.156158         0.003826         0.447995
 C         1.272296        -0.037032         0.233994
 C         1.980905         1.300633         0.428511
 O         3.359706         0.980353        -0.012714
 C         3.247183        -0.421740         0.037179
 C         2.134894        -1.019315         0.890479
 C         2.026262        -2.227938        -0.197945
 C         2.171233        -0.904292        -0.974320
 O         2.261923        -0.804379        -2.367720
 H        -0.469639         0.548803         1.449382
 H        -0.664028         0.666959        -0.268613
 H        -0.651488        -1.008063         0.444305
 H         1.600814         2.158954        -0.164843
 H         1.943111         1.784613         1.429132
 H         4.226639        -0.831792        -0.178077
 H         2.302750        -1.337440         1.976614
 H         2.940301        -2.823707        -0.147637
 H         1.205063        -2.936146        -0.091539
 H         1.563181        -0.225069        -2.687853
