19
Iteration:   911charge 0 multiplicity 1
 C        -0.176743        -0.067306         0.129159
 C         1.375756         0.009196         0.146143
 C         2.172447         1.309720         0.321274
 O         3.517021         0.866504         0.114373
 C         3.365563        -0.547537         0.080143
 C         2.174823        -1.056871         0.980480
 C         2.053001        -2.223145        -0.103793
 C         2.075517        -0.840892        -0.903628
 O         1.769399        -0.612695        -2.255702
 H        -0.439809         0.946829         0.173654
 H        -0.412502        -0.495914        -0.942144
 H        -0.666851        -0.623938         1.005718
 H         1.972898         2.063893        -0.421844
 H         1.968624         1.877818         1.276478
 H         4.388739        -1.091860         0.016313
 H         2.297590        -1.325147         2.109347
 H         2.919411        -2.871775        -0.293149
 H         1.093802        -2.734007         0.125662
 H         1.861246         0.338124        -2.509325
