19
Iteration:  4675charge 0 multiplicity 1
 C        -0.208282        -0.219846         0.395959
 C         1.294302        -0.036301         0.178109
 C         1.889106         1.334890         0.077660
 O         3.344606         1.032566         0.051125
 C         3.395477        -0.316602         0.016757
 C         2.326637        -0.991849         0.993351
 C         2.033430        -2.156443         0.028169
 C         2.205857        -0.885839        -0.925025
 O         2.040341        -0.871420        -2.299651
 H        -0.483932        -0.767140         1.273119
 H        -0.704919         0.703659         0.187025
 H        -0.560897        -0.841421        -0.424079
 H         1.572624         1.971102        -0.841332
 H         1.785496         1.918066         1.009984
 H         4.323395        -0.819035        -0.052798
 H         2.416724        -1.013118         2.153328
 H         2.831064        -2.912568         0.002473
 H         1.028948        -2.392495         0.206426
 H         2.447984        -0.018162        -2.644606
