19
Iteration:  4391
 C        -0.237213        -0.166875         0.099787
 C         1.340455        -0.088431         0.216462
 C         1.985042         1.296875         0.352283
 O         3.319036         1.078386         0.166865
 C         3.397856        -0.370219        -0.012097
 C         2.382326        -1.059349         0.981826
 C         2.176826        -2.131178        -0.102812
 C         2.221406        -0.916526        -0.951443
 O         1.822415        -0.809550        -2.245064
 H        -0.592221        -1.116804         0.547970
 H        -0.623819         0.785159         0.613535
 H        -0.809796        -0.063769        -0.863615
 H         1.603967         1.996271        -0.411959
 H         1.669413         1.835977         1.348410
 H         4.419644        -0.676142         0.007955
 H         2.572283        -1.268395         2.063369
 H         3.097450        -2.792551        -0.247115
 H         1.285451        -2.753270        -0.085205
 H         1.964888         0.123819        -2.650955
