19
Iteration:  1043charge 0 multiplicity 1
 C        -0.081693        -0.057391         0.111172
 C         1.452831        -0.069309         0.261951
 C         2.057721         1.242886         0.290332
 O         3.502306         0.946061         0.155257
 C         3.334950        -0.586821        -0.014433
 C         2.345842        -1.176854         0.991917
 C         1.741185        -2.158768        -0.096243
 C         2.157132        -0.884561        -0.913714
 O         1.843903        -0.483943        -2.240522
 H        -0.407773        -0.316207        -0.849245
 H        -0.587818        -0.769608         0.776470
 H        -0.511728         0.973649         0.237624
 H         1.731417         1.866096        -0.528964
 H         1.975481         1.779213         1.237593
 H         4.313541        -0.917610        -0.297569
 H         2.434290        -1.298731         2.092623
 H         2.307682        -3.054930        -0.203738
 H         0.671498        -2.248454         0.037719
 H         2.493512         0.028831        -2.627751
