19
Iteration:  1339charge 0 multiplicity 1
 C        -0.228266         0.038441         0.569080
 C         1.224318        -0.009961         0.043833
 C         2.023789         1.321740         0.165732
 O         3.429741         0.869277         0.025999
 C         3.329358        -0.564346         0.011683
 C         2.216240        -1.019685         0.890179
 C         1.903765        -2.237719        -0.047116
 C         2.154276        -0.929488        -0.950582
 O         2.270360        -0.641597        -2.301210
 H        -0.077422        -0.199483         1.626805
 H        -0.806053         0.936754         0.639317
 H        -0.928053        -0.653568        -0.009511
 H         1.736559         2.105347        -0.641701
 H         1.946906         1.683424         1.188116
 H         4.458729        -0.929685        -0.092156
 H         2.134421        -1.139303         2.006660
 H         2.578263        -3.019562         0.164156
 H         0.849205        -2.487176        -0.155606
 H         1.491721         0.013535        -2.453795
