19
Iteration:  4238charge 0 multiplicity 1
 C        -0.155569        -0.342530         0.236185
 C         1.341586        -0.093000         0.217808
 C         1.952308         1.331266         0.428831
 O         3.428006         1.061606         0.205793
 C         3.329914        -0.337856        -0.020573
 C         2.330168        -1.044664         0.883362
 C         1.986722        -2.164117        -0.148594
 C         2.204110        -0.769336        -0.938563
 O         1.948022        -0.742937        -2.345344
 H        -0.839804         0.485402         0.185978
 H        -0.530000        -0.842510        -0.685211
 H        -0.433785        -1.098434         0.984298
 H         1.677071         2.079703        -0.235874
 H         1.834565         1.650351         1.456273
 H         4.360209        -0.789015        -0.177226
 H         2.357574        -1.030975         1.973615
 H         2.823646        -2.994703        -0.342246
 H         0.991044        -2.475553         0.091091
 H         1.929440         0.110747        -2.841627
