19
Iteration:  3736charge 0 multiplicity 1
 C        -0.265333        -0.248902         0.431412
 C         1.302214        -0.111811         0.193694
 C         1.892899         1.214820         0.333788
 O         3.326589         0.952560         0.181346
 C         3.339400        -0.468785        -0.033348
 C         2.377475        -1.079623         0.877968
 C         2.075362        -2.147972        -0.293043
 C         2.144325        -0.773757        -0.926735
 O         2.100509        -0.516243        -2.294816
 H        -0.545642        -1.109487         1.059242
 H        -0.671710         0.536850         0.989007
 H        -0.630352        -0.432840        -0.541681
 H         1.474825         1.958488        -0.470924
 H         1.672755         1.791790         1.201684
 H         4.356496        -0.947405        -0.197857
 H         2.466988        -1.142024         1.972302
 H         3.006104        -2.816513        -0.405613
 H         1.084669        -2.621223        -0.291089
 H         2.609624         0.342997        -2.429595
