19
Iteration:   570charge 0 multiplicity 1
 C        -0.216775         0.105560         0.192741
 C         1.315254         0.000819         0.183340
 C         2.180722         1.315850         0.314189
 O         3.592152         0.849330         0.083192
 C         3.263560        -0.507759         0.031580
 C         2.246566        -1.060263         0.962165
 C         2.002287        -2.164644        -0.077330
 C         2.007349        -0.862090        -0.919685
 O         1.866366        -0.809265        -2.276268
 H        -0.531373         0.294573         1.202453
 H        -0.605160         1.070074        -0.338138
 H        -0.702771        -0.710986        -0.232684
 H         2.110897         2.146638        -0.369185
 H         2.125262         1.719462         1.333175
 H         4.199073        -1.236399        -0.013716
 H         2.337251        -1.213878         2.061132
 H         2.991923        -2.653953        -0.187504
 H         1.158015        -2.927930        -0.081446
 H         2.044778         0.078051        -2.455493
