19
Iteration:  4290charge 0 multiplicity 1
 C        -0.253287        -0.117401         0.541900
 C         1.246902        -0.205790         0.212699
 C         1.906193         1.328438         0.223023
 O         3.295548         1.058256         0.125356
 C         3.308762        -0.400531        -0.011591
 C         2.294141        -1.126715         0.939453
 C         2.149243        -2.186940        -0.217093
 C         2.129375        -0.917973        -0.981984
 O         2.182034        -0.629627        -2.360975
 H        -0.439079         0.707972         1.476472
 H        -0.939911         0.086927        -0.320236
 H        -0.731728        -1.088708         0.854702
 H         1.507591         1.838172        -0.720491
 H         1.735740         1.950006         1.230943
 H         4.401352        -0.759566        -0.099128
 H         2.371546        -1.365283         1.926740
 H         3.059692        -2.801314        -0.393429
 H         1.272777        -2.845631        -0.216583
 H         2.797454         0.089750        -2.376365
