19
Iteration:  3258
 C        -0.252243        -0.064330         0.399972
 C         1.248072        -0.159116         0.250101
 C         1.928529         1.248854         0.323649
 O         3.279087         1.111391         0.063781
 C         3.377717        -0.294997        -0.033968
 C         2.248321        -1.182791         0.910602
 C         2.123533        -2.211665        -0.248069
 C         2.172253        -0.894269        -0.897183
 O         2.161353        -0.763602        -2.275041
 H        -0.326233         0.718093         1.075942
 H        -0.795381         0.354942        -0.440901
 H        -0.700306        -0.957225         0.716042
 H         1.559389         1.888213        -0.460735
 H         1.816812         1.792031         1.469126
 H         4.358563        -0.627495        -0.244402
 H         2.417046        -1.503461         2.014837
 H         2.976257        -2.888972        -0.399659
 H         1.167000        -2.677917        -0.146638
 H         2.379076         0.179883        -2.592116
