19
Iteration:  4742charge 0 multiplicity 1
 C        -0.160603        -0.090558         0.129586
 C         1.315770        -0.136748         0.156566
 C         1.913075         1.335275         0.188242
 O         3.326722         1.076769         0.040207
 C         3.335221        -0.332828        -0.027684
 C         2.368155        -0.933417         1.005913
 C         2.183739        -2.199683         0.105852
 C         2.183363        -0.914617        -0.873188
 O         1.914451        -0.965722        -2.205854
 H        -0.632718        -1.065007         0.269874
 H        -0.534295         0.649276         0.824352
 H        -0.363177         0.275816        -0.858065
 H         1.476030         2.132444        -0.515485
 H         1.642923         1.527744         1.221570
 H         4.308938        -0.592870        -0.131785
 H         2.457449        -0.873076         2.152258
 H         3.092315        -2.752601        -0.033272
 H         1.226256        -2.604293         0.159070
 H         1.855609        -0.066318        -2.584915
