19
Iteration:  2032charge 0 multiplicity 1
 C        -0.117935        -0.109465         0.464894
 C         1.291068        -0.091040         0.144906
 C         1.912367         1.301228         0.146820
 O         3.299645         1.007397         0.166769
 C         3.301453        -0.450081        -0.001560
 C         2.260230        -1.079869         0.929405
 C         2.065349        -2.273341        -0.083995
 C         2.125432        -0.926738        -0.989316
 O         2.229295        -0.553587        -2.332096
 H        -0.108171         0.091407         1.528653
 H        -0.897499         0.546853         0.092208
 H        -0.623099        -1.102663         0.290301
 H         1.676395         1.940973        -0.695736
 H         1.594547         1.854740         0.989307
 H         4.226650        -0.937652        -0.188103
 H         2.277422        -0.997716         1.955958
 H         2.916750        -2.982495        -0.048205
 H         1.168289        -2.828136         0.001546
 H         1.314060        -0.144187        -2.544062
