19
Iteration:  3591charge 0 multiplicity 1
 C        -0.227238        -0.117459         0.443957
 C         1.274023        -0.132297         0.243591
 C         1.780499         1.280525         0.230828
 O         3.285780         0.957155         0.144941
 C         3.354138        -0.463737        -0.088786
 C         2.382141        -1.187557         0.939146
 C         2.106394        -2.138252        -0.186652
 C         2.157808        -0.825600        -0.948516
 O         2.158074        -0.557834        -2.306065
 H        -0.521467         0.972097         0.242287
 H        -0.896476        -0.850731        -0.050423
 H        -0.381358        -0.129570         1.601039
 H         1.364993         1.756479        -0.756450
 H         1.657263         1.760016         1.172371
 H         4.352798        -0.791170        -0.338456
 H         2.452146        -1.400929         2.034110
 H         2.965291        -2.784780        -0.326725
 H         1.189244        -2.910816        -0.076014
 H         2.835023         0.150102        -2.453635
