19
Iteration:  3280charge 0 multiplicity 1
 C        -0.161544        -0.197849         0.325838
 C         1.350582        -0.059815         0.208988
 C         1.895081         1.295644         0.369693
 O         3.286412         1.013631         0.060209
 C         3.338948        -0.419348         0.031153
 C         2.301249        -1.043338         0.966146
 C         2.062926        -2.156131        -0.191148
 C         2.184711        -0.842817        -0.952352
 O         2.084640        -0.733341        -2.330091
 H        -0.504051         0.308273         1.179459
 H        -0.735232         0.321750        -0.432175
 H        -0.444831        -1.203737         0.337943
 H         1.446240         2.043375        -0.272141
 H         1.839002         1.632121         1.536941
 H         4.292845        -0.863892        -0.008788
 H         2.349141        -1.079245         2.115896
 H         2.987276        -2.776929        -0.213534
 H         1.158018        -2.734522        -0.197435
 H         2.066518         0.097748        -2.758239
