19
Iteration:  4215
 C        -0.152607        -0.372075         0.080916
 C         1.327995        -0.024117         0.230520
 C         2.019161         1.324865         0.432528
 O         3.363114         0.999096         0.193147
 C         3.368238        -0.373780        -0.035180
 C         2.373737        -1.039115         0.935688
 C         2.088365        -2.094034        -0.160677
 C         2.141176        -0.801340        -0.856025
 O         1.811674        -0.730332        -2.272766
 H        -0.568571         0.517154        -0.254289
 H        -0.577940        -0.966623        -0.768181
 H        -0.676382        -0.780441         0.962552
 H         1.818728         2.161665        -0.175351
 H         1.770375         1.557827         1.491134
 H         4.477288        -0.663234        -0.214003
 H         2.547964        -1.234905         1.925029
 H         3.111887        -2.679051        -0.314710
 H         1.115852        -2.629889        -0.209482
 H         2.238047         0.120370        -2.619289
