19
Iteration:  3487
 C        -0.155465        -0.085152         0.194678
 C         1.333454        -0.140381         0.152565
 C         1.863503         1.272449         0.343243
 O         3.341259         1.060834         0.148155
 C         3.358578        -0.388993         0.072695
 C         2.417670        -1.106218         0.999734
 C         2.176272        -2.157264        -0.182997
 C         2.139001        -0.884996        -0.911292
 O         1.912083        -0.794000        -2.273653
 H        -0.562720         0.043488         1.136094
 H        -0.313840         0.940890        -0.200178
 H        -0.552408        -0.743357        -0.508640
 H         1.510721         1.969220        -0.569619
 H         1.567502         1.935663         1.323063
 H         4.344727        -0.894241         0.020034
 H         2.481884        -1.138250         2.106780
 H         3.135508        -2.713460        -0.399273
 H         1.355133        -2.746507        -0.395630
 H         1.437659         0.102261        -2.447788
