19
Iteration:   941charge 0 multiplicity 1
 C        -0.203883         0.006714         0.343545
 C         1.335085        -0.020344         0.234569
 C         2.068113         1.300005         0.401592
 O         3.512511         0.964140         0.197082
 C         3.338961        -0.503252        -0.097935
 C         2.260565        -1.107014         0.896859
 C         1.843157        -2.119809        -0.195552
 C         2.100503        -0.799238        -0.899347
 O         2.020548        -0.832145        -2.336808
 H        -0.422826         0.935945        -0.174708
 H        -0.699240        -0.824268        -0.333470
 H        -0.613644        -0.151682         1.301093
 H         1.824791         2.017064        -0.418456
 H         1.907499         1.724618         1.377773
 H         4.376808        -0.844439        -0.263314
 H         2.521003        -1.387147         1.915320
 H         2.441762        -3.026422        -0.478021
 H         0.809617        -2.450047        -0.008736
 H         2.471726        -0.048193        -2.806781
