19
Iteration:  1602charge 0 multiplicity 1
 C        -0.264063        -0.165084         0.134407
 C         1.331943        -0.058668         0.176854
 C         2.123558         1.305658         0.204030
 O         3.468229         0.930557         0.138194
 C         3.367811        -0.505208         0.048562
 C         2.243067        -0.989769         1.013037
 C         2.081021        -2.178814        -0.096860
 C         2.168442        -0.900231        -0.838649
 O         1.811314        -0.503481        -2.221872
 H        -0.676686        -0.262115         1.063950
 H        -0.671039         0.736863        -0.377231
 H        -0.392830        -1.092561        -0.459169
 H         1.879251         1.965599        -0.609867
 H         1.899473         1.909594         1.075429
 H         4.349121        -0.953427        -0.160718
 H         2.446735        -1.077566         2.053024
 H         2.973381        -2.867677        -0.226101
 H         1.223043        -2.850474         0.099851
 H         1.925816        -1.277488        -2.733502
