19
Iteration:  1167charge 0 multiplicity 1
 C        -0.268309        -0.118661         0.562882
 C         1.327208         0.003612         0.095624
 C         2.147656         1.332194         0.207649
 O         3.508282         0.812259         0.005191
 C         3.278164        -0.512311         0.044183
 C         2.096285        -1.029728         0.930178
 C         1.814762        -2.132919        -0.156384
 C         2.130845        -0.859080        -0.941293
 O         2.266522        -0.601313        -2.305150
 H        -0.835074         0.914779         0.584686
 H        -0.864252        -0.751079        -0.008392
 H        -0.376952        -0.412624         1.663426
 H         1.840355         2.023093        -0.556221
 H         2.237540         1.866613         1.190962
 H         4.260253        -1.110815        -0.187083
 H         2.196299        -1.138969         2.022368
 H         2.532116        -2.966136        -0.197624
 H         0.865014        -2.645808         0.015610
 H         1.497451        -0.205587        -2.577917
