19
Iteration:  4903charge 0 multiplicity 1
 C        -0.184827        -0.184553         0.113546
 C         1.333513        -0.028248         0.128207
 C         1.970055         1.355606         0.233699
 O         3.368911         1.135940         0.110117
 C         3.441110        -0.331859         0.039886
 C         2.352853        -0.922697         0.971717
 C         2.128996        -2.166479         0.017644
 C         2.147078        -0.908288        -0.877844
 O         1.840322        -1.066562        -2.228058
 H        -0.371942        -1.229334         0.352471
 H        -0.798015         0.419732         0.848090
 H        -0.579675         0.144611        -0.893741
 H         1.510404         1.933643        -0.622205
 H         1.677808         1.804273         1.208567
 H         4.483936        -0.561720         0.024513
 H         2.369249        -0.862703         2.168663
 H         3.085672        -2.651308        -0.117110
 H         1.139930        -2.553617         0.188274
 H         1.922449        -0.176506        -2.714882
