19
Iteration:  4614
 C        -0.218691        -0.196748         0.365342
 C         1.280900        -0.109118         0.210884
 C         1.864857         1.332507         0.178176
 O         3.376912         1.051489        -0.021893
 C         3.358899        -0.315387         0.036759
 C         2.269949        -0.977072         0.975557
 C         2.091796        -2.188366        -0.009009
 C         2.196632        -0.899628        -0.905047
 O         2.066427        -0.751416        -2.311853
 H        -0.548666         0.584085         1.173807
 H        -0.862484         0.136527        -0.505554
 H        -0.515644        -1.154884         0.865876
 H         1.594382         1.933415        -0.632009
 H         1.743438         1.916826         1.111216
 H         4.444756        -0.746274         0.048787
 H         2.365909        -0.957664         2.060471
 H         2.779581        -3.006382        -0.199896
 H         1.127199        -2.815844         0.076713
 H         2.699640        -1.291139        -2.821951
