19
Iteration:  2512charge 0 multiplicity 1
 C        -0.192919        -0.245374         0.293206
 C         1.341726        -0.059940         0.191917
 C         1.978290         1.301390         0.181982
 O         3.386093         0.945551         0.103332
 C         3.298151        -0.409083         0.026478
 C         2.332857        -1.027802         1.005423
 C         2.081868        -2.131245        -0.075448
 C         2.092527        -0.834391        -0.827721
 O         1.986958        -0.613177        -2.317231
 H        -0.739913        -0.369174         1.152791
 H        -0.741771         0.585352        -0.269310
 H        -0.335977        -1.207019        -0.325385
 H         1.522041         1.947168        -0.651379
 H         1.771339         1.766034         1.129722
 H         4.298320        -0.941523        -0.334233
 H         2.149163        -1.169822         2.088652
 H         3.004406        -2.784789        -0.107594
 H         1.078976        -2.650689         0.066196
 H         2.886739        -0.462444        -2.797231
