19
Iteration:  3365charge 0 multiplicity 1
 C        -0.296550        -0.096323         0.300737
 C         1.287099        -0.129487         0.153958
 C         1.929907         1.261407         0.258729
 O         3.320052         1.035964         0.160933
 C         3.339435        -0.361468        -0.070039
 C         2.353231        -1.075807         0.895849
 C         2.214832        -2.237033        -0.076575
 C         2.180732        -0.951910        -0.925616
 O         1.962655        -0.647504        -2.222374
 H        -0.571213        -0.610467         1.199950
 H        -0.500695         1.090637         0.139231
 H        -0.700804        -0.560092        -0.514673
 H         1.595671         2.019620        -0.549244
 H         1.761373         1.780839         1.143683
 H         4.359208        -0.590816         0.036986
 H         2.385974        -1.071213         2.047536
 H         3.062201        -2.921867        -0.222523
 H         1.208414        -2.820471        -0.079829
 H         2.819414        -0.298667        -2.585106
