19
Iteration:  3217
 C        -0.198202        -0.248079         0.353340
 C         1.353318        -0.086881         0.162487
 C         1.950304         1.336193         0.289068
 O         3.333453         1.019216         0.191577
 C         3.288432        -0.402604        -0.049828
 C         2.287926        -1.035553         0.922956
 C         2.037781        -2.204559        -0.103018
 C         2.147941        -0.823980        -0.969203
 O         2.054453        -0.668087        -2.340404
 H        -0.436469         0.506245         1.178274
 H        -0.800986        -0.154475        -0.522298
 H        -0.331192        -1.347866         0.786789
 H         1.641791         1.926772        -0.594476
 H         1.797572         1.720145         1.217685
 H         4.326038        -0.636005        -0.089275
 H         2.275970        -1.147942         1.990733
 H         2.983824        -2.806546        -0.173267
 H         1.170310        -2.792884        -0.061913
 H         2.805206        -0.148774        -2.548476
