19
Iteration:  3136charge 0 multiplicity 1
 C        -0.279276        -0.033911         0.234555
 C         1.319880        -0.116821         0.186908
 C         1.852048         1.242363         0.346397
 O         3.296346         0.997538         0.080003
 C         3.381002        -0.423826         0.036693
 C         2.363329        -1.049805         0.971445
 C         2.238704        -2.225061        -0.135291
 C         2.215822        -0.825719        -0.887398
 O         1.971081        -0.750046        -2.311823
 H        -0.668511         0.191434         1.174679
 H        -0.565880         0.833084        -0.451645
 H        -0.803434        -0.839742        -0.075169
 H         1.412622         1.937346        -0.278721
 H         1.479724         1.753713         1.279719
 H         4.450783        -0.733497        -0.164674
 H         2.619907        -1.132340         2.130522
 H         3.006053        -2.888429        -0.264259
 H         1.261831        -2.756313         0.019152
 H         2.482087         0.009013        -2.626169
