19
Iteration:  4930
 C        -0.162680        -0.361347         0.181563
 C         1.331473        -0.007259         0.201228
 C         1.999183         1.413873         0.183011
 O         3.378262         1.071942         0.087392
 C         3.322368        -0.375077        -0.013631
 C         2.340308        -0.899758         1.029886
 C         2.023276        -2.106189         0.017729
 C         2.187140        -0.849939        -0.874784
 O         1.937837        -0.984028        -2.256257
 H        -0.394785        -1.279203         0.810724
 H        -0.682563         0.485158         0.574091
 H        -0.576149        -0.623460        -0.797950
 H         1.598492         1.894974        -0.672753
 H         1.777963         2.103552         0.993820
 H         4.417249        -0.676640        -0.240312
 H         2.316629        -0.893906         2.039703
 H         2.973979        -2.697715        -0.015901
 H         0.963289        -2.262953         0.137597
 H         2.109522        -0.086755        -2.747585
