19
Iteration:  2726
 C        -0.217491        -0.179806         0.451786
 C         1.307681        -0.071014         0.217287
 C         1.900133         1.323168         0.280285
 O         3.258234         0.967893         0.084694
 C         3.312558        -0.392780        -0.031205
 C         2.311206        -1.068023         0.948118
 C         2.018082        -2.080854        -0.115654
 C         2.096676        -0.827725        -0.948410
 O         2.339493        -0.727848        -2.380504
 H        -0.434493         0.078442         1.568202
 H        -0.765734         0.495959        -0.214021
 H        -0.533113        -1.261532         0.215248
 H         1.527213         2.159328        -0.423260
 H         1.792205         1.579338         1.444898
 H         4.312144        -0.812284        -0.314530
 H         2.541803        -1.247087         2.027294
 H         2.785188        -2.873435        -0.313744
 H         1.085662        -2.676710        -0.010850
 H         1.442851        -0.567100        -2.802720
