19
Iteration:  1538
 C        -0.171247        -0.065490         0.352273
 C         1.294917        -0.005608         0.254398
 C         2.047394         1.316832         0.361696
 O         3.394352         1.015254         0.109971
 C         3.333855        -0.452882        -0.046763
 C         2.246826        -1.103724         0.940301
 C         1.904987        -2.144294        -0.164101
 C         2.120060        -0.812800        -0.939222
 O         2.159932        -0.847805        -2.347899
 H        -0.630351         0.716579         1.051456
 H        -0.785819         0.032058        -0.596736
 H        -0.501768        -0.976914         0.968894
 H         1.592525         1.965680        -0.465876
 H         1.987887         1.720852         1.390628
 H         4.273501        -0.911940        -0.335029
 H         2.281351        -1.320360         1.992209
 H         2.719695        -2.860312        -0.298005
 H         0.943778        -2.669391        -0.060885
 H         1.991162        -0.015379        -2.869098
