19
Iteration:  3145
 C        -0.304093        -0.055370         0.192125
 C         1.303092        -0.173539         0.161565
 C         1.900962         1.225823         0.320356
 O         3.280423         1.050842         0.126640
 C         3.369290        -0.392056        -0.031657
 C         2.404664        -1.070004         0.948270
 C         2.222640        -2.227202        -0.049885
 C         2.166279        -0.885263        -0.906553
 O         1.955730        -0.695257        -2.251821
 H        -0.571681         0.272018         1.168364
 H        -0.461005         0.827637        -0.425783
 H        -0.805295        -0.854533        -0.226884
 H         1.655342         1.841425        -0.514782
 H         1.859106         1.678325         1.398668
 H         4.453071        -0.779058        -0.137558
 H         2.561271        -0.946844         2.027686
 H         3.060614        -2.851628        -0.332581
 H         1.207943        -2.833490        -0.038930
 H         2.553907         0.030462        -2.448432
