19
Iteration:   520charge 0 multiplicity 1
 C        -0.101619         0.088388         0.255341
 C         1.398732         0.044756         0.102811
 C         2.150402         1.267654         0.368827
 O         3.460701         0.935976         0.169003
 C         3.377668        -0.515063        -0.040759
 C         2.356509        -1.052044         0.930851
 C         1.742344        -2.163501         0.011825
 C         1.999948        -0.861152        -0.976586
 O         2.031147        -0.865675        -2.348797
 H        -0.422638         0.341360         1.288915
 H        -0.524557         0.839022        -0.329093
 H        -0.617665        -0.859132        -0.198929
 H         1.883167         2.233693        -0.197681
 H         1.945799         1.538720         1.518579
 H         4.242627        -0.973763        -0.270731
 H         2.454480        -1.086244         1.994880
 H         2.181451        -3.094727        -0.342533
 H         0.756678        -2.300127         0.348466
 H         1.209743        -0.333434        -2.690763
