19
Iteration:  4910
 C        -0.136868        -0.229706         0.145938
 C         1.383503         0.026571         0.156439
 C         1.940357         1.375538         0.204245
 O         3.377444         1.114178         0.111041
 C         3.420121        -0.335837         0.030910
 C         2.298215        -0.945099         1.000416
 C         2.105888        -2.129880         0.031726
 C         2.096094        -0.893139        -0.921061
 O         1.867628        -1.056353        -2.204163
 H        -0.328520        -1.290420         0.271015
 H        -0.795141         0.421658         0.727814
 H        -0.493463        -0.304897        -0.907491
 H         1.626837         2.163249        -0.580582
 H         1.702061         1.904392         1.157621
 H         4.582278        -0.535150         0.025619
 H         2.549375        -0.948877         1.987675
 H         2.977071        -2.712206        -0.216733
 H         1.095728        -2.640066         0.052743
 H         1.925500        -0.262180        -2.728265
