19
Iteration:  4004
 C        -0.177928        -0.400035         0.238294
 C         1.309445        -0.089338         0.288231
 C         1.963364         1.309958         0.406588
 O         3.409025         1.058173         0.298195
 C         3.400414        -0.427168        -0.073709
 C         2.387975        -1.095490         0.895908
 C         2.005805        -2.147444        -0.272591
 C         2.134967        -0.787724        -0.937988
 O         1.913613        -0.573243        -2.306295
 H        -0.359819        -1.118857         0.980337
 H        -0.713634         0.490122        -0.082195
 H        -0.199844        -0.903205        -0.760043
 H         1.702843         2.112382        -0.302660
 H         1.681709         1.651646         1.349913
 H         4.415155        -0.631338        -0.150398
 H         2.561886        -1.401403         2.005690
 H         2.711096        -2.958875        -0.587481
 H         0.840520        -2.543105        -0.229729
 H         1.962807         0.344357        -2.545793
