19
Iteration:  2747
 C        -0.195352        -0.320905         0.355263
 C         1.327753        -0.033763         0.274412
 C         1.984436         1.384104         0.375328
 O         3.383554         1.082251         0.077179
 C         3.253521        -0.378224        -0.081528
 C         2.241231        -1.027821         0.908535
 C         1.957177        -2.170362        -0.152443
 C         2.133904        -0.839399        -0.946900
 O         2.240409        -0.717513        -2.282234
 H        -0.551246        -0.074386         1.471021
 H        -0.736620         0.262063        -0.406768
 H        -0.175556        -1.431365         0.124643
 H         1.572644         1.893253        -0.568215
 H         1.850774         2.042463         1.343001
 H         4.235264        -0.910424        -0.198864
 H         2.273956        -1.098519         2.044112
 H         2.763298        -3.003667        -0.312998
 H         0.961048        -2.776551        -0.198367
 H         1.455612        -0.942704        -2.733024
