19
Iteration:  1345
 C        -0.175562         0.050183         0.542213
 C         1.259607        -0.042885         0.088968
 C         1.975510         1.303662         0.154403
 O         3.443580         0.900425         0.051861
 C         3.353447        -0.550854         0.013323
 C         2.168871        -1.011822         0.906207
 C         1.936096        -2.244633        -0.059426
 C         2.124811        -0.926411        -1.003733
 O         2.240707        -0.660570        -2.320808
 H        -0.241921        -0.306114         1.661454
 H        -0.682767         1.093849         0.645355
 H        -0.841436        -0.665703         0.113344
 H         1.850165         2.165034        -0.462658
 H         1.972764         1.788337         1.168372
 H         4.274450        -0.994034        -0.046122
 H         1.951619        -1.009660         1.962427
 H         2.562915        -3.218701         0.051105
 H         0.860205        -2.503325         0.122354
 H         1.699316         0.026410        -2.555978
