19
Iteration:  3038
 C        -0.253529        -0.096535         0.288551
 C         1.280852        -0.160929         0.231834
 C         1.930254         1.253774         0.215961
 O         3.271765         1.011278         0.063731
 C         3.339306        -0.443201         0.055405
 C         2.357390        -1.088334         0.991962
 C         2.181576        -2.217144        -0.182492
 C         2.175967        -0.790671        -0.886872
 O         2.031748        -0.648076        -2.226658
 H        -0.483521         0.602999         1.096604
 H        -0.707884         0.276041        -0.782745
 H        -0.791562        -0.998419         0.543610
 H         1.594485         1.901229        -0.731722
 H         1.816520         1.878637         1.099421
 H         4.389902        -0.827350        -0.177745
 H         2.411196        -1.414658         2.166561
 H         3.019564        -2.788881        -0.360587
 H         1.218862        -2.814109        -0.121061
 H         2.584440         0.035928        -2.618203
