19
Iteration:  2994charge 0 multiplicity 1
 C        -0.178156        -0.282075         0.126008
 C         1.372027        -0.064324         0.146226
 C         1.906286         1.336630         0.390763
 O         3.371927         1.000626         0.107420
 C         3.371467        -0.380236        -0.017264
 C         2.367234        -1.072190         0.956748
 C         2.070573        -2.171155        -0.064397
 C         2.139839        -0.845128        -0.868423
 O         1.901513        -0.690356        -2.248767
 H        -0.536688         0.106386         1.088919
 H        -0.598205         0.381212        -0.799378
 H        -0.406830        -1.311811         0.026634
 H         1.602405         2.209429        -0.256518
 H         1.842662         1.751974         1.305331
 H         4.438164        -0.727928        -0.207249
 H         2.431709        -0.887921         2.140138
 H         2.764017        -2.905673        -0.285329
 H         1.006511        -2.587294        -0.080994
 H         2.539300        -0.106058        -2.627468
