19
Iteration:  2478charge 0 multiplicity 1
 C        -0.189043        -0.039548         0.198337
 C         1.349019        -0.119806         0.190693
 C         1.888874         1.277172         0.269148
 O         3.287531         1.022014         0.050310
 C         3.406466        -0.371257         0.021934
 C         2.403411        -1.143337         1.039142
 C         2.088374        -2.206284        -0.105131
 C         2.204959        -0.852957        -0.917710
 O         1.942720        -0.700078        -2.210885
 H        -0.633035         0.054901         1.130067
 H        -0.533264         0.785928        -0.511125
 H        -0.660298        -0.984896        -0.268281
 H         1.523988         1.985779        -0.551051
 H         1.660993         1.577980         1.285242
 H         4.420051        -0.825373        -0.267877
 H         2.335624        -1.327556         2.114169
 H         2.779318        -3.139015        -0.164788
 H         1.088788        -2.696679         0.035481
 H         2.561588         0.038434        -2.511314
