19
Iteration:  3507
 C        -0.156818        -0.188254         0.161360
 C         1.290251        -0.072044         0.234779
 C         1.984478         1.270544         0.366496
 O         3.335614         1.044368         0.227025
 C         3.395755        -0.323819        -0.072676
 C         2.321709        -1.087907         0.888555
 C         2.140124        -2.188616        -0.081109
 C         2.202456        -0.841841        -0.919629
 O         1.881206        -0.787682        -2.298048
 H        -0.704358         0.096334         1.053480
 H        -0.484763         0.592957        -0.652184
 H        -0.349975        -1.157490        -0.157949
 H         1.538292         1.986817        -0.354212
 H         1.779610         1.922769         1.361385
 H         4.359962        -0.596844        -0.276427
 H         2.434642        -1.313101         1.991409
 H         2.924755        -2.890069        -0.179473
 H         1.135600        -2.578805         0.052267
 H         1.814605         0.155736        -2.555604
