19
Iteration:  2465
 C        -0.153195        -0.091035         0.172297
 C         1.315545        -0.134459         0.214175
 C         1.958424         1.214770         0.332293
 O         3.330939         1.033539         0.102161
 C         3.331893        -0.402069         0.013596
 C         2.349586        -1.042013         0.976884
 C         2.102488        -2.137920        -0.104088
 C         2.094719        -0.889985        -0.848107
 O         1.980251        -0.757829        -2.317924
 H        -0.457063         0.256319         1.202259
 H        -0.540913         0.677996        -0.513755
 H        -0.592601        -1.093811        -0.001636
 H         1.530228         1.909954        -0.477018
 H         1.831591         1.789712         1.276485
 H         4.346274        -0.628641         0.015326
 H         2.537449        -1.145509         2.024689
 H         2.960736        -2.764015        -0.526436
 H         1.135971        -2.591708         0.017292
 H         2.325700         0.111034        -2.573228
