19
Iteration:  2493
 C        -0.216495        -0.155428         0.185627
 C         1.315928        -0.135002         0.235310
 C         1.905103         1.299594         0.268006
 O         3.374553         1.064862         0.053685
 C         3.359017        -0.430904        -0.034991
 C         2.299491        -1.087939         0.919929
 C         2.074902        -2.255284        -0.021777
 C         2.214356        -0.926564        -0.824487
 O         1.949951        -0.621626        -2.220349
 H        -0.543150        -0.000197         1.266418
 H        -0.476579         0.797129        -0.253828
 H        -0.683948        -0.912990        -0.386048
 H         1.496531         1.921983        -0.512294
 H         1.845830         2.032158         1.075870
 H         4.461880        -0.678434        -0.034616
 H         2.638969        -1.157413         1.979677
 H         2.887776        -2.861212        -0.227477
 H         1.041408        -2.631021        -0.238837
 H         2.759255        -0.159582        -2.653537
