19
Iteration:  1648
 C        -0.140300        -0.089362         0.343430
 C         1.367276        -0.040905         0.223808
 C         1.963496         1.328049         0.264215
 O         3.378316         0.978656         0.207986
 C         3.346013        -0.452360        -0.084069
 C         2.303704        -1.064029         0.919516
 C         1.921719        -2.167903        -0.068605
 C         2.116779        -0.865569        -0.959407
 O         2.129959        -0.711238        -2.344820
 H        -0.421463        -0.303680         1.431726
 H        -0.558481         0.875361         0.041350
 H        -0.443773        -0.984319        -0.288197
 H         1.620331         1.933484        -0.565975
 H         1.788501         1.980062         1.158075
 H         4.316012        -0.786634         0.068306
 H         2.282503        -1.071908         2.023849
 H         2.541925        -3.049160        -0.268278
 H         0.876706        -2.463008        -0.180087
 H         1.385838        -1.033851        -2.821618
