19
Iteration:  3584charge 0 multiplicity 1
 C        -0.295950        -0.099223         0.479079
 C         1.295370        -0.159482         0.220252
 C         1.850440         1.258533         0.228706
 O         3.281737         0.948551         0.098254
 C         3.323914        -0.428330        -0.011104
 C         2.434331        -1.137606         0.899116
 C         2.083079        -2.131933        -0.187524
 C         2.130020        -0.834296        -0.936469
 O         2.158446        -0.549932        -2.304935
 H        -0.527215         0.962284         0.346795
 H        -0.834553        -0.926121        -0.205753
 H        -0.369468        -0.543016         1.432788
 H         1.498103         1.640472        -0.667267
 H         1.558530         1.606281         1.254114
 H         4.372554        -0.668862        -0.171602
 H         2.446649        -1.310758         1.994101
 H         2.849561        -2.931126        -0.362791
 H         1.163889        -2.702558        -0.092028
 H         2.995868         0.035091        -2.454059
