19
Iteration:  1814
 C        -0.092146        -0.058065         0.205741
 C         1.341699        -0.106161         0.286453
 C         1.934978         1.255116         0.374250
 O         3.333939         1.013090         0.123363
 C         3.318272        -0.408813        -0.044925
 C         2.349831        -1.065304         0.967303
 C         1.978911        -2.179349        -0.110354
 C         2.048707        -0.812340        -0.893618
 O         2.128774        -0.700150        -2.358862
 H        -0.600352         0.365927         1.109474
 H        -0.337527         0.698202        -0.506978
 H        -0.724759        -0.932835         0.131563
 H         1.540518         1.864126        -0.492467
 H         1.899832         1.646008         1.436207
 H         4.322787        -0.775932        -0.379103
 H         2.601462        -1.299001         2.014689
 H         2.822104        -2.919930        -0.120106
 H         0.950038        -2.578939        -0.043607
 H         1.618588        -1.421726        -2.723690
