19
Iteration:  2796charge 0 multiplicity 1
 C        -0.162767        -0.082974         0.175048
 C         1.312468        -0.075626         0.231150
 C         1.947762         1.276474         0.229000
 O         3.327044         1.062476         0.254256
 C         3.305452        -0.349999        -0.067110
 C         2.314475        -1.140594         0.968809
 C         2.221185        -2.285461        -0.070740
 C         2.202994        -0.881103        -0.908344
 O         1.881063        -0.605957        -2.275680
 H        -0.492162         0.428378         1.004370
 H        -0.381049         0.515755        -0.742185
 H        -0.514012        -1.104321         0.122088
 H         1.673009         1.900398        -0.637541
 H         1.690319         1.855185         1.269690
 H         4.331655        -0.614774        -0.126058
 H         2.569688        -1.366222         1.982415
 H         3.016253        -2.962352        -0.142984
 H         1.372784        -2.903667        -0.116289
 H         1.753776        -1.422978        -2.880190
