19
Iteration:  3625charge 0 multiplicity 1
 C        -0.205502        -0.263754         0.376930
 C         1.307619        -0.088859         0.164882
 C         1.898682         1.300814         0.341467
 O         3.403565         1.029108         0.179366
 C         3.403286        -0.416673         0.056029
 C         2.279287        -1.095139         0.911299
 C         2.067786        -2.129362        -0.257811
 C         2.180890        -0.817641        -0.963580
 O         2.005407        -0.666017        -2.343104
 H        -0.818297         0.087448        -0.511788
 H        -0.594674        -1.305659         0.625889
 H        -0.460998         0.337548         1.270459
 H         1.578862         2.120072        -0.377870
 H         1.826644         1.717663         1.298010
 H         4.347814        -0.828194        -0.002823
 H         2.245526        -1.368345         2.008433
 H         2.926538        -2.786792        -0.420369
 H         1.061513        -2.739416        -0.191322
 H         2.215591         0.232491        -2.557159
