19
Iteration:   316
 C        -0.165191         0.042977         0.412678
 C         1.319263         0.102992         0.136258
 C         2.222503         1.409039         0.066848
 O         3.608395         0.824332         0.031046
 C         3.302581        -0.658237         0.100571
 C         2.087675        -1.104713         0.929058
 C         1.795461        -2.166771        -0.143615
 C         2.078186        -0.871314        -0.829293
 O         2.059928        -0.610034        -2.177785
 H        -0.424575         0.405396         1.436230
 H        -0.679880         0.739172        -0.237878
 H        -0.541726        -0.988178         0.292554
 H         1.993677         1.974012        -0.884408
 H         1.960622         2.027149         0.895196
 H         4.084815        -1.313445         0.224496
 H         2.208073        -1.238150         1.946113
 H         2.594454        -2.978274        -0.195121
 H         0.810467        -2.532320        -0.398050
 H         1.680193        -1.419542        -2.723351
