19
Iteration:  3321
 C        -0.156911        -0.340210         0.151196
 C         1.319874        -0.051068         0.224318
 C         1.977302         1.354125         0.301381
 O         3.388485         1.040541         0.210693
 C         3.400510        -0.405580        -0.029692
 C         2.330215        -0.995351         0.939218
 C         2.020759        -2.172475        -0.130818
 C         2.164806        -0.799997        -0.881320
 O         1.871562        -0.730981        -2.253475
 H        -0.503443        -0.575145         1.178271
 H        -0.843648         0.547965        -0.275516
 H        -0.385946        -1.202989        -0.387190
 H         1.706372         1.980621        -0.570120
 H         1.765084         1.922653         1.063184
 H         4.429369        -0.704238        -0.215050
 H         2.641663        -1.121962         2.029271
 H         2.841372        -2.891389        -0.303391
 H         1.000042        -2.736391        -0.057450
 H         2.557969        -0.094885        -2.585951
