19
Iteration:  4946
 C        -0.255174        -0.312121         0.291559
 C         1.281218        -0.079623         0.172355
 C         1.919836         1.337370         0.105749
 O         3.384786         1.066527         0.029113
 C         3.415382        -0.327844        -0.024140
 C         2.345261        -0.913770         0.981810
 C         2.013037        -2.121642         0.078242
 C         2.176952        -0.887957        -0.843955
 O         2.024749        -0.866078        -2.278151
 H        -0.378237        -0.928085         1.153962
 H        -0.914688         0.597355         0.444763
 H        -0.517363        -0.559480        -0.774927
 H         1.708426         1.970199        -0.867725
 H         1.745148         1.823690         1.104175
 H         4.353616        -0.917935         0.027967
 H         2.522371        -0.969661         2.163448
 H         2.841448        -2.861605        -0.009357
 H         1.000983        -2.570418         0.149362
 H         2.381333         0.021316        -2.473982
