19
Iteration:  4401
 C        -0.188918        -0.097544         0.175737
 C         1.278523        -0.139916         0.187012
 C         1.888906         1.321570         0.321007
 O         3.322106         1.035712         0.151535
 C         3.388784        -0.372525         0.023180
 C         2.356958        -1.016542         0.977279
 C         2.221245        -2.200430        -0.111406
 C         2.239545        -0.842993        -0.915517
 O         1.876654        -0.828051        -2.290850
 H        -0.682735        -1.076281         0.485233
 H        -0.509902         0.523514         1.007038
 H        -0.387956         0.116462        -0.873253
 H         1.461018         1.976988        -0.460739
 H         1.881522         1.793184         1.308303
 H         4.395255        -0.708708        -0.202574
 H         2.458957        -1.239934         2.007135
 H         2.978913        -2.934331        -0.322063
 H         1.259327        -2.602532        -0.033903
 H         1.796194         0.152459        -2.495946
