19
Iteration:   420charge 0 multiplicity 1
 C        -0.180613         0.071203         0.269123
 C         1.397673         0.044147         0.121860
 C         2.257589         1.389415         0.283289
 O         3.524435         0.848740         0.102835
 C         3.247615        -0.573564        -0.002980
 C         2.216646        -1.105925         0.978926
 C         1.821095        -2.150736        -0.054595
 C         2.078020        -0.876503        -0.906388
 O         1.922390        -0.720502        -2.296970
 H        -0.530669         0.643378         1.130411
 H        -0.668093         0.350019        -0.687541
 H        -0.586159        -0.966320         0.445179
 H         1.972091         2.227833        -0.458794
 H         2.037995         1.706701         1.384208
 H         4.140707        -1.250016        -0.164920
 H         2.360668        -1.299795         2.080023
 H         2.526105        -2.929419        -0.291631
 H         0.842921        -2.597665         0.079239
 H         2.752484        -0.367907        -2.607424
