19
Iteration:  4825
 C        -0.169968        -0.307787         0.437025
 C         1.288533        -0.027154         0.141991
 C         1.898700         1.372600         0.088997
 O         3.364761         1.019573        -0.089693
 C         3.339092        -0.369777         0.034301
 C         2.241677        -0.828200         0.973765
 C         1.967242        -2.086975         0.077916
 C         2.185578        -0.967500        -0.881575
 O         2.170574        -0.879113        -2.281057
 H        -0.577456        -1.189428        -0.075671
 H        -0.227960        -0.521579         1.550671
 H        -0.906981         0.550062         0.237249
 H         1.475543         1.821377        -0.802885
 H         1.683517         2.011159         0.961430
 H         4.461675        -0.622826        -0.082237
 H         2.204110        -0.841710         2.089960
 H         2.469666        -3.014441         0.068319
 H         0.960337        -2.472058         0.128502
 H         2.939401        -0.244881        -2.545940
