19
Iteration:  3458
 C        -0.287628        -0.124230         0.312290
 C         1.330624        -0.078960         0.232635
 C         1.930252         1.345734         0.285611
 O         3.343820         1.014419         0.179022
 C         3.339834        -0.390597        -0.104282
 C         2.277060        -1.074778         0.978500
 C         2.142771        -2.203425        -0.079325
 C         2.216915        -0.895067        -0.963241
 O         2.050139        -0.740507        -2.351268
 H        -0.508866        -0.624784         1.351436
 H        -0.755396         0.836654         0.322143
 H        -0.655786        -0.854729        -0.552559
 H         1.605972         1.925678        -0.523350
 H         1.743848         1.936881         1.099041
 H         4.398562        -0.872060        -0.003907
 H         2.464217        -1.074617         2.032336
 H         3.112867        -2.789858        -0.088079
 H         1.213407        -2.826532        -0.231378
 H         1.736145         0.161744        -2.522080
