19
Iteration:  2833charge 0 multiplicity 1
 C        -0.147134        -0.169685         0.195972
 C         1.349692        -0.096072         0.156465
 C         1.982100         1.260372         0.316062
 O         3.362753         1.056948         0.177071
 C         3.345909        -0.358954        -0.013670
 C         2.325434        -1.070657         0.985244
 C         2.112933        -2.168723        -0.123542
 C         2.157296        -0.851921        -0.910076
 O         1.855058        -0.677524        -2.261093
 H        -0.755693         0.446796         0.904904
 H        -0.557585         0.196422        -0.728245
 H        -0.524823        -1.165778         0.269561
 H         1.650140         1.978197        -0.432561
 H         1.650200         1.616907         1.249817
 H         4.309587        -0.943508         0.014268
 H         2.524875        -1.306557         2.101748
 H         3.006498        -2.793788        -0.297086
 H         1.034883        -2.577376        -0.225688
 H         2.710929        -0.898846        -2.709404
