19
Iteration:   683charge 0 multiplicity 1
 C        -0.142623         0.131163         0.245798
 C         1.360104        -0.038433         0.240082
 C         2.053401         1.329882         0.428579
 O         3.469120         0.916458         0.147501
 C         3.319510        -0.528516        -0.114885
 C         2.330660        -1.082464         0.918133
 C         1.890747        -2.144710        -0.158601
 C         2.147455        -0.877555        -0.952952
 O         1.998901        -0.799798        -2.274671
 H        -0.315607         1.119246         0.732451
 H        -0.584262         0.186736        -0.715705
 H        -0.683591        -0.823286         0.691428
 H         1.666330         2.096241        -0.262740
 H         1.851137         1.650732         1.399695
 H         4.300909        -0.950931        -0.164662
 H         2.452041        -1.251278         2.002871
 H         2.505498        -3.024561        -0.305739
 H         0.867650        -2.438140        -0.067283
 H         1.006912        -0.760854        -2.474529
