19
Iteration:  4405charge 0 multiplicity 1
 C        -0.177924        -0.111206         0.221888
 C         1.335506        -0.141822         0.190657
 C         1.855373         1.300271         0.299227
 O         3.333849         1.030892         0.138713
 C         3.369866        -0.344319         0.021585
 C         2.348104        -1.037770         0.939098
 C         2.214038        -2.186607        -0.112103
 C         2.201814        -0.839351        -0.876284
 O         1.910325        -0.823733        -2.305075
 H        -0.651139        -1.031384         0.335344
 H        -0.612435         0.596474         1.023527
 H        -0.415815         0.315809        -0.827377
 H         1.528803         1.999344        -0.485474
 H         1.797035         1.772029         1.374178
 H         4.354516        -0.735112        -0.165625
 H         2.428111        -1.138668         2.137715
 H         3.036096        -3.020440        -0.284938
 H         1.161746        -2.688336        -0.071937
 H         1.758776         0.087120        -2.505943
