19
Iteration:  2021
 C        -0.247228        -0.120366         0.475157
 C         1.286254        -0.106991         0.096508
 C         1.903698         1.274281         0.174565
 O         3.343440         0.921654         0.224400
 C         3.363983        -0.447396        -0.088765
 C         2.250252        -1.029977         0.902796
 C         2.102060        -2.179535        -0.038848
 C         2.174264        -0.832977        -0.957433
 O         2.170353        -0.593784        -2.348972
 H        -0.304872         0.159862         1.519059
 H        -0.772289         0.601867        -0.160117
 H        -0.570815        -1.183469         0.497599
 H         1.734936         1.828952        -0.724349
 H         1.632599         1.778803         1.046400
 H         4.335832        -0.812932         0.085448
 H         2.336085        -1.235872         1.909964
 H         2.965539        -2.849312        -0.197557
 H         1.172886        -2.695460         0.012604
 H         1.311632        -0.372724        -2.691947
