19
Iteration:  2625charge 0 multiplicity 1
 C        -0.140691        -0.253645         0.149655
 C         1.386518        -0.039901         0.192525
 C         1.916247         1.316331         0.351986
 O         3.337569         0.978311         0.103985
 C         3.383522        -0.454465         0.045273
 C         2.385390        -0.990560         0.962652
 C         2.024482        -2.154397        -0.126987
 C         2.155322        -0.911510        -0.926916
 O         1.937899        -0.567107        -2.263896
 H        -0.724200         0.359127         0.922976
 H        -0.304255         0.200285        -0.841455
 H        -0.353811        -1.242183         0.227662
 H         1.523963         2.176509        -0.242407
 H         1.749771         1.694865         1.416251
 H         4.373932        -0.786121         0.146489
 H         2.457722        -1.022435         2.042302
 H         2.887904        -2.760010        -0.261119
 H         1.101787        -2.720529        -0.023745
 H         1.604951        -1.464122        -2.532324
