19
Iteration:   446
 C        -0.161417         0.155652         0.388609
 C         1.408979        -0.097590         0.217124
 C         2.123157         1.203667         0.121387
 O         3.447598         0.815127         0.126616
 C         3.369942        -0.550306        -0.046418
 C         2.261443        -1.053679         0.941314
 C         1.716582        -2.168717        -0.018052
 C         2.132660        -0.913053        -0.946758
 O         2.046595        -0.491543        -2.257699
 H        -0.474358         0.914178         1.147208
 H        -0.554704         0.260805        -0.588003
 H        -0.726327        -0.830608         0.618722
 H         1.813534         1.545230        -0.832205
 H         1.861557         1.951982         0.893703
 H         4.285854        -1.024120        -0.105580
 H         2.362650        -1.027353         1.989700
 H         2.268265        -3.174511        -0.054016
 H         0.633646        -2.396432        -0.037443
 H         2.467310        -1.157032        -2.742491
