19
Iteration:   508charge 0 multiplicity 1
 C        -0.202209         0.074928         0.313681
 C         1.313393         0.027342         0.137489
 C         2.119912         1.370426         0.337319
 O         3.560566         0.847438         0.162243
 C         3.341680        -0.542678        -0.075299
 C         2.297584        -1.075677         0.924564
 C         1.770974        -2.139904         0.024985
 C         2.113439        -0.881132        -0.926479
 O         2.045121        -0.793885        -2.411620
 H        -0.496001         0.321108         1.346609
 H        -0.628940         0.794778        -0.358242
 H        -0.638090        -0.985366         0.191288
 H         1.968402         2.116357        -0.512393
 H         1.979290         1.847534         1.388526
 H         4.287183        -0.956636        -0.238346
 H         2.319169        -0.978216         1.988664
 H         2.501242        -2.941908        -0.052245
 H         0.790093        -2.506677         0.104534
 H         1.236051        -0.428921        -2.633104
