19
Iteration:  2055
 C        -0.188946        -0.192320         0.453627
 C         1.289106        -0.130575         0.256887
 C         1.901457         1.291239         0.163575
 O         3.319382         1.007853        -0.006477
 C         3.391952        -0.400681        -0.016521
 C         2.255747        -1.123578         0.975959
 C         1.981062        -2.144980        -0.175047
 C         2.179577        -0.828772        -0.896229
 O         2.253144        -0.618026        -2.240882
 H        -0.367352        -0.119329         1.560951
 H        -0.766943         0.627531         0.048853
 H        -0.704713        -1.032948         0.031774
 H         1.587669         1.894142        -0.675274
 H         1.677733         1.868347         1.004894
 H         4.345457        -0.876513         0.070032
 H         2.238737        -1.364897         1.958822
 H         2.709290        -2.982015        -0.393289
 H         0.984318        -2.542363        -0.174231
 H         1.483061        -0.202485        -2.549004
