19
Iteration:  3897
 C        -0.154527        -0.380482         0.319020
 C         1.306597        -0.099076         0.199704
 C         1.978110         1.260478         0.420034
 O         3.393991         0.982152         0.269472
 C         3.370116        -0.412356        -0.014979
 C         2.279287        -1.167668         0.874647
 C         2.028269        -2.135452        -0.287365
 C         2.211622        -0.743430        -0.984945
 O         1.954476        -0.480771        -2.332249
 H        -0.868733         0.400944         0.774989
 H        -0.704600        -0.571102        -0.667313
 H        -0.175634        -1.235464         1.079761
 H         1.576379         2.124925        -0.186030
 H         1.753767         1.544433         1.478493
 H         4.311054        -0.725267        -0.495263
 H         2.269429        -1.383448         1.981038
 H         2.814155        -2.847935        -0.311288
 H         0.966908        -2.461154        -0.447693
 H         2.304443         0.420164        -2.439301
