19
Iteration:  2920
 C        -0.234116        -0.024811         0.459021
 C         1.303635        -0.183736         0.214975
 C         1.838984         1.226453         0.265088
 O         3.313220         1.021229         0.134160
 C         3.331732        -0.354884         0.005637
 C         2.288055        -1.052571         0.976975
 C         2.100159        -2.229293        -0.147950
 C         2.275371        -0.898328        -0.949114
 O         2.134869        -0.710777        -2.446327
 H        -0.201843         0.243718         1.498003
 H        -0.518041         0.764650        -0.229045
 H        -0.840302        -0.871587         0.278995
 H         1.522372         1.776237        -0.640485
 H         1.503221         1.852927         1.315635
 H         4.401257        -0.754385        -0.089447
 H         2.178128        -1.411377         2.082259
 H         2.970344        -2.886513        -0.266605
 H         1.011842        -2.620904        -0.116643
 H         2.017006         0.287721        -2.663736
