19
Iteration:  3091
 C        -0.227657        -0.319107         0.393234
 C         1.278304        -0.005411         0.134295
 C         1.881605         1.330386         0.298344
 O         3.389876         1.001117         0.195531
 C         3.315446        -0.381576        -0.031202
 C         2.358884        -0.980256         0.911986
 C         1.950504        -2.062802        -0.114471
 C         2.172833        -0.811280        -0.986339
 O         2.169308        -0.855605        -2.358238
 H        -0.491527         0.054318         1.344517
 H        -0.948732         0.066634        -0.356647
 H        -0.263029        -1.336083         0.472145
 H         1.722625         2.238430        -0.194666
 H         1.810649         1.884594         1.301013
 H         4.354016        -0.858496        -0.174735
 H         2.372781        -1.182937         2.027212
 H         2.616763        -2.845362        -0.268440
 H         0.910719        -2.550458        -0.166514
 H         2.268462         0.106596        -2.580333
