19
Iteration:  1173charge 0 multiplicity 1
 C        -0.222735        -0.101057         0.571404
 C         1.323182        -0.023922         0.059018
 C         2.130603         1.330651         0.217845
 O         3.497048         0.823056        -0.011282
 C         3.302099        -0.548179         0.046605
 C         2.108249        -1.043541         0.951191
 C         1.828324        -2.107434        -0.116234
 C         2.127962        -0.870345        -0.921826
 O         2.237916        -0.589932        -2.303494
 H        -0.649037         0.825043         0.372164
 H        -0.936530        -0.752622        -0.110497
 H        -0.412200        -0.635222         1.511407
 H         1.984362         2.097344        -0.596056
 H         2.172628         1.752312         1.212997
 H         4.204458        -0.964946        -0.257065
 H         1.992419        -1.184055         2.027737
 H         2.541765        -2.934211        -0.073378
 H         0.768019        -2.435456        -0.079185
 H         1.472358         0.012502        -2.599652
