19
Iteration:   990charge 0 multiplicity 1
 C        -0.261956         0.009867         0.619659
 C         1.275380         0.033833         0.162554
 C         2.103448         1.296577         0.338700
 O         3.481379         0.857381         0.105324
 C         3.272698        -0.514962         0.012102
 C         2.097967        -1.094895         0.857739
 C         1.949314        -2.143846        -0.247585
 C         2.058284        -0.852088        -1.009746
 O         2.216224        -0.744065        -2.396559
 H        -0.969254         0.142786        -0.233411
 H        -0.533001        -0.783896         1.217498
 H        -0.300606         0.939018         1.329686
 H         1.857210         2.007970        -0.408863
 H         2.170675         1.739302         1.362555
 H         4.269328        -0.964346        -0.053472
 H         2.007386        -1.148106         1.961632
 H         2.789966        -2.803370        -0.313574
 H         0.992517        -2.673634        -0.341733
 H         2.669040         0.055221        -2.596793
