19
Iteration:  2315charge 0 multiplicity 1
 C        -0.141264        -0.243572         0.209362
 C         1.349653        -0.087058         0.236125
 C         1.965598         1.283738         0.292039
 O         3.343726         1.002092         0.166310
 C         3.336484        -0.430885        -0.066426
 C         2.343282        -1.019079         0.942017
 C         1.992645        -2.081460        -0.075006
 C         2.155779        -0.765408        -0.881552
 O         1.960945        -0.776298        -2.270395
 H        -0.494485        -0.026464         1.186995
 H        -0.522338         0.532884        -0.559437
 H        -0.652993        -1.236237        -0.135719
 H         1.725389         1.968427        -0.557340
 H         1.905977         1.843292         1.267271
 H         4.361678        -0.830979        -0.301739
 H         2.609989        -1.195599         1.939405
 H         2.688691        -2.911067        -0.295079
 H         0.992372        -2.398590         0.053684
 H         2.534191        -0.088185        -2.729304
