19
Iteration:  1844charge 0 multiplicity 1
 C        -0.296892        -0.143093         0.461409
 C         1.248469         0.036744         0.143206
 C         2.024245         1.351277         0.355129
 O         3.382284         1.011476         0.074846
 C         3.326305        -0.441166         0.037433
 C         2.198201        -1.024105         0.871937
 C         2.022587        -2.183938        -0.180051
 C         2.195455        -0.832618        -0.939190
 O         2.235484        -0.807650        -2.368557
 H        -0.351248         0.007363         1.519085
 H        -0.876712         0.701696        -0.088472
 H        -0.759628        -1.222621         0.179031
 H         1.702066         2.233834        -0.280934
 H         1.965375         1.614713         1.448222
 H         4.328356        -0.906249        -0.038497
 H         2.324927        -1.427761         1.973848
 H         2.894660        -2.908810         0.070240
 H         0.977252        -2.677454        -0.259793
 H         1.355380        -0.681444        -2.755951
