19
Iteration:  4196charge 0 multiplicity 1
 C        -0.173529        -0.212314         0.082686
 C         1.335612        -0.112457         0.231385
 C         1.924032         1.291830         0.439217
 O         3.381313         1.071611         0.161630
 C         3.379231        -0.380234        -0.014888
 C         2.359344        -1.130901         0.960286
 C         2.197593        -2.197700        -0.141975
 C         2.152561        -0.826054        -0.938627
 O         1.792147        -0.656355        -2.252129
 H        -0.534378         0.797235        -0.467624
 H        -0.383160        -1.224530        -0.395464
 H        -0.673417        -0.265246         1.085105
 H         1.393257         1.826547        -0.367908
 H         1.820017         1.749052         1.380290
 H         4.412746        -0.767782        -0.094318
 H         2.470280        -1.268493         2.101118
 H         3.002604        -2.949708        -0.413606
 H         1.256502        -2.684431        -0.138928
 H         2.409276         0.107913        -2.577122
