19
Iteration:   281charge 0 multiplicity 1
 C        -0.148610         0.117074         0.388658
 C         1.376607         0.014086         0.230749
 C         2.074208         1.293906         0.245936
 O         3.510658         0.811828         0.117232
 C         3.292593        -0.665618        -0.010614
 C         2.272880        -1.013249         0.918114
 C         1.686837        -2.107469         0.043048
 C         2.084891        -0.870212        -0.983089
 O         2.130642        -0.622075        -2.417965
 H        -0.438505         0.915285         1.100535
 H        -0.506490         0.371650        -0.566192
 H        -0.740070        -0.865879         0.713190
 H         1.921945         1.967149        -0.559374
 H         2.012840         1.826757         1.137506
 H         4.165586        -1.230855        -0.023878
 H         2.608641        -1.174161         1.990578
 H         2.308358        -3.103806         0.041322
 H         0.577042        -2.260474        -0.024092
 H         2.218496        -1.553548        -2.919511
