19
Iteration:  2907charge 0 multiplicity 1
 C        -0.189843        -0.065094         0.456529
 C         1.282270        -0.084076         0.311074
 C         1.888797         1.302741         0.203731
 O         3.261887         1.063954         0.075141
 C         3.321396        -0.439952         0.038762
 C         2.245200        -1.156680         0.942435
 C         2.111324        -2.198686        -0.200541
 C         2.253572        -0.941537        -0.994975
 O         2.160701        -0.700996        -2.349445
 H        -0.543133         0.324850         1.383212
 H        -0.704052         0.719036        -0.213097
 H        -0.681964        -0.986549         0.333056
 H         1.401761         1.955004        -0.536010
 H         1.788050         1.897889         1.250472
 H         4.371455        -0.764867        -0.031605
 H         2.487761        -1.340102         2.063669
 H         2.873486        -2.914163        -0.193141
 H         1.157434        -2.788801        -0.339590
 H         2.191975         0.232580        -2.343314
