19
Iteration:  4872
 C        -0.185421         0.012743         0.197068
 C         1.302330        -0.088124         0.167912
 C         1.889665         1.300336         0.177454
 O         3.263974         1.093706         0.036757
 C         3.370688        -0.371309        -0.058066
 C         2.347238        -0.953052         0.994066
 C         2.203742        -2.168052         0.082804
 C         2.180793        -0.933710        -0.832399
 O         1.979339        -1.002171        -2.261244
 H        -0.608883        -0.948752        -0.129271
 H        -0.644257         0.149460         1.176648
 H        -0.466219         0.853323        -0.454060
 H         1.422963         1.788909        -0.605111
 H         1.618493         1.756695         1.135153
 H         4.360674        -0.682993        -0.073554
 H         2.464075        -0.874146         2.156355
 H         3.171725        -2.840806         0.070795
 H         1.518977        -2.998823         0.222684
 H         2.011535        -0.112940        -2.581026
