19
Iteration:   839charge 0 multiplicity 1
 C        -0.295296         0.025879         0.408428
 C         1.287689        -0.023005         0.185306
 C         2.132798         1.343046         0.313893
 O         3.505345         0.917660         0.119797
 C         3.326381        -0.513505        -0.026683
 C         2.200715        -1.062239         0.877862
 C         1.919915        -2.135608        -0.139882
 C         2.151156        -0.836720        -0.945745
 O         2.043390        -0.850774        -2.324758
 H        -0.404115         0.050756         1.549476
 H        -0.720534         0.861437        -0.114711
 H        -0.774684        -0.932733         0.090219
 H         1.821798         2.185581        -0.330352
 H         2.141212         1.734634         1.323207
 H         4.305555        -1.017911        -0.008397
 H         2.245230        -1.028267         1.973617
 H         2.701925        -2.852569        -0.334021
 H         0.879054        -2.487791        -0.217738
 H         2.401359        -0.020203        -2.659379
