19
Iteration:  1456
 C        -0.197786        -0.055415         0.211649
 C         1.309209        -0.049025         0.257539
 C         2.020015         1.282570         0.223828
 O         3.462805         0.915501         0.070364
 C         3.382152        -0.445864        -0.011962
 C         2.319039        -1.209553         1.038422
 C         1.965035        -2.138376        -0.108086
 C         2.102325        -0.785602        -0.858189
 O         1.967884        -0.560378        -2.196827
 H        -0.577163         0.970604         0.455847
 H        -0.355025        -0.241296        -0.946010
 H        -0.676841        -0.920384         0.650294
 H         1.772054         1.826839        -0.708960
 H         1.975433         1.980536         1.139531
 H         4.312834        -0.983356        -0.196143
 H         2.440254        -1.388540         2.123238
 H         2.723233        -2.912474        -0.506669
 H         0.931935        -2.601952        -0.222235
 H         1.819110        -1.439694        -2.716564
