19
Iteration:   521
 C        -0.091413         0.089537         0.246305
 C         1.403863         0.037312         0.101742
 C         2.155746         1.267140         0.371900
 O         3.454433         0.937845         0.167395
 C         3.376370        -0.511235        -0.044483
 C         2.353009        -1.047694         0.931656
 C         1.745017        -2.158436         0.003486
 C         1.993916        -0.862765        -0.972612
 O         2.027862        -0.871393        -2.339108
 H        -0.417967         0.351439         1.282487
 H        -0.515447         0.855793        -0.306322
 H        -0.605329        -0.850105        -0.219069
 H         1.841854         2.230000        -0.174673
 H         1.936135         1.520814         1.545876
 H         4.269283        -0.973132        -0.253061
 H         2.482723        -1.117678         1.999606
 H         2.180457        -3.113234        -0.340916
 H         0.735181        -2.269296         0.342115
 H         1.204620        -0.325566        -2.712615
