19
Iteration:  1444charge 0 multiplicity 1
 C        -0.208486        -0.086459         0.088722
 C         1.348484        -0.102317         0.187573
 C         2.080244         1.292960         0.284559
 O         3.538457         0.968215         0.091432
 C         3.332331        -0.481993        -0.003327
 C         2.295990        -1.087237         1.019908
 C         2.019756        -2.173488        -0.101212
 C         2.144087        -0.884775        -0.839188
 O         1.841381        -0.540769        -2.208162
 H        -0.650254         0.788994         0.715533
 H        -0.663149         0.018414        -0.962654
 H        -0.669072        -0.848647         0.679272
 H         1.729870         2.064916        -0.449150
 H         1.955160         1.721041         1.341471
 H         4.255755        -0.897370        -0.243844
 H         2.201743        -1.336686         2.071976
 H         2.755753        -3.022858        -0.297140
 H         0.992774        -2.541736         0.122961
 H         1.924845        -1.349492        -2.676321
