19
Iteration:  3206
 C        -0.163579        -0.349361         0.324862
 C         1.270195        -0.069688         0.121274
 C         1.942338         1.335946         0.283773
 O         3.447680         1.089136         0.150453
 C         3.399297        -0.398407         0.008120
 C         2.247186        -1.096739         0.933952
 C         2.003483        -2.159505        -0.096916
 C         2.159927        -0.802990        -0.891183
 O         1.999536        -0.667943        -2.300183
 H        -0.693358         0.235415         1.167335
 H        -0.766767        -0.116571        -0.534493
 H        -0.353506        -1.501602         0.588680
 H         1.595253         2.054046        -0.500657
 H         1.707253         1.862209         1.112719
 H         4.321234        -0.908017        -0.181697
 H         2.198716        -1.014313         1.999434
 H         2.789622        -2.930431        -0.355856
 H         1.058063        -2.562857        -0.276907
 H         2.737226        -0.214290        -2.750878
