19
Iteration:   543charge 0 multiplicity 1
 C        -0.114757         0.144904         0.165276
 C         1.395938         0.024637         0.269369
 C         2.097280         1.290555         0.498160
 O         3.483809         0.932565         0.058477
 C         3.370338        -0.493733        -0.073598
 C         2.248931        -1.087967         0.945715
 C         1.808429        -2.136689        -0.085494
 C         2.206091        -0.851793        -0.945225
 O         1.907017        -0.957755        -2.299364
 H        -0.622039         0.266505         1.164170
 H        -0.323780         1.034707        -0.330544
 H        -0.636314        -0.650844        -0.495344
 H         1.880842         2.183946        -0.150355
 H         2.147216         1.741394         1.574011
 H         4.241556        -1.008387        -0.294838
 H         2.267341        -1.099166         2.025722
 H         2.537780        -2.925539        -0.304193
 H         0.795344        -2.469714        -0.169517
 H         1.372920        -0.215478        -2.380724
