19
Iteration:  4216
 C        -0.154475        -0.383503         0.080963
 C         1.326164        -0.012615         0.225335
 C         2.019058         1.322493         0.441201
 O         3.369889         1.002858         0.196360
 C         3.377571        -0.375431        -0.045147
 C         2.367292        -1.036523         0.935678
 C         2.081628        -2.085762        -0.155589
 C         2.135898        -0.802018        -0.862227
 O         1.815802        -0.734379        -2.275086
 H        -0.593155         0.586568        -0.202184
 H        -0.553176        -1.004009        -0.777823
 H        -0.668067        -0.798497         0.975507
 H         1.791965         2.120837        -0.182877
 H         1.773122         1.543269         1.455317
 H         4.475602        -0.662886        -0.217450
 H         2.548314        -1.254505         1.965418
 H         3.101554        -2.693316        -0.307820
 H         1.131395        -2.607258        -0.242273
 H         2.230669         0.102865        -2.566527
