19
Iteration:  4735
 C        -0.187210        -0.145142         0.114477
 C         1.337969        -0.091382         0.115315
 C         1.943865         1.287941         0.239861
 O         3.323686         1.133925         0.046692
 C         3.363929        -0.386205        -0.031387
 C         2.355198        -0.900736         1.026606
 C         2.159797        -2.148999         0.069684
 C         2.188402        -0.916211        -0.818373
 O         1.904365        -0.978178        -2.253305
 H        -0.784104        -1.087509         0.441881
 H        -0.676594         0.647878         0.761953
 H        -0.389799         0.108403        -0.977658
 H         1.519596         2.019431        -0.474335
 H         1.818921         1.736594         1.273103
 H         4.441431        -0.814124        -0.133384
 H         2.607797        -0.772046         2.023629
 H         3.007344        -2.828968         0.096134
 H         1.206670        -2.756166         0.233292
 H         1.709567         0.003594        -2.458895
