19
Iteration:  1245charge 0 multiplicity 1
 C        -0.116359         0.042257         0.103874
 C         1.437891         0.001486         0.156114
 C         2.130750         1.353218         0.389330
 O         3.487290         0.904105         0.258080
 C         3.354447        -0.461752         0.032336
 C         2.277590        -1.042762         0.920253
 C         2.098768        -2.215406        -0.124622
 C         2.101625        -0.891916        -0.926891
 O         1.597840        -0.768825        -2.284743
 H        -0.366202         1.119001         0.312231
 H        -0.490304         0.012553        -0.883884
 H        -0.795127        -0.636096         0.563862
 H         2.013341         2.183694        -0.277793
 H         2.063393         1.616166         1.466411
 H         4.283405        -1.083693        -0.026369
 H         2.143242        -1.199854         2.008699
 H         2.978298        -2.921578        -0.144444
 H         1.065594        -2.600366        -0.239382
 H         2.370981        -0.930932        -2.874468
