19
Iteration:   556charge 0 multiplicity 1
 C        -0.252595         0.170255         0.184435
 C         1.315910         0.027695         0.284413
 C         2.253688         1.353353         0.417372
 O         3.517174         0.890124         0.057045
 C         3.385866        -0.515528        -0.013170
 C         2.170767        -1.073468         0.988134
 C         2.005958        -2.176367        -0.110221
 C         2.108683        -0.889140        -0.896651
 O         1.868795        -0.891186        -2.353375
 H        -0.881902         0.135871         1.106877
 H        -0.473416         1.042759        -0.427500
 H        -0.575778        -0.705071        -0.366980
 H         1.764674         2.081601        -0.251658
 H         2.263196         1.707972         1.538669
 H         4.436667        -0.950300        -0.065973
 H         2.313706        -1.287521         2.085741
 H         2.716816        -3.024735        -0.234055
 H         0.950941        -2.597967        -0.065095
 H         1.508720        -0.010236        -2.756177
