19
Iteration:  2199charge 0 multiplicity 1
 C        -0.099383        -0.308019         0.302024
 C         1.315271        -0.063539         0.156610
 C         1.999851         1.368081         0.243556
 O         3.389342         0.970084         0.002398
 C         3.319571        -0.446753         0.041725
 C         2.226525        -1.109104         0.975946
 C         1.982373        -2.177331        -0.077673
 C         2.160916        -0.849337        -0.880214
 O         1.984934        -0.524316        -2.239345
 H        -0.447166         0.456957         1.143105
 H        -0.581247        -0.122017        -0.649370
 H        -0.380778        -1.304875         0.586672
 H         1.741761         2.089452        -0.644498
 H         1.739494         1.947868         1.166161
 H         4.350995        -0.957522        -0.165395
 H         2.202285        -1.278280         2.091955
 H         2.781543        -2.941588        -0.151268
 H         0.954824        -2.662318        -0.052058
 H         2.838382        -0.174912        -2.603746
