19
Iteration:  2198
 C        -0.101603        -0.303296         0.303878
 C         1.322074        -0.073614         0.151133
 C         1.993727         1.365215         0.237619
 O         3.395901         0.974712         0.005177
 C         3.324037        -0.445609         0.049197
 C         2.223773        -1.107951         0.982573
 C         1.978432        -2.186588        -0.070124
 C         2.160218        -0.841727        -0.884252
 O         1.980179        -0.520745        -2.246794
 H        -0.435327         0.461540         1.125043
 H        -0.584826        -0.151917        -0.644988
 H        -0.384336        -1.320194         0.573860
 H         1.739348         2.107625        -0.614505
 H         1.764477         1.968583         1.171216
 H         4.354152        -0.948580        -0.174836
 H         2.200409        -1.305221         2.053293
 H         2.773054        -2.944144        -0.142225
 H         0.980651        -2.654376        -0.055652
 H         2.817057        -0.200496        -2.591450
