19
Iteration:   265charge 0 multiplicity 1
 C        -0.186424         0.218973         0.300174
 C         1.329484         0.023365         0.222439
 C         2.196509         1.329606         0.339761
 O         3.490595         0.849466         0.123415
 C         3.318727        -0.511835        -0.110358
 C         2.224894        -1.146150         0.962722
 C         1.778113        -2.184702        -0.067039
 C         2.097719        -0.899292        -0.920319
 O         2.045512        -0.728831        -2.332755
 H        -0.385610         1.102240         0.922173
 H        -0.670191         0.328130        -0.745268
 H        -0.700251        -0.585616         0.742176
 H         1.882554         2.025659        -0.488479
 H         2.068379         1.773983         1.391937
 H         4.379721        -0.995361        -0.298817
 H         2.375486        -1.241666         2.067979
 H         2.332095        -3.078644        -0.220137
 H         0.748853        -2.497585         0.097868
 H         2.341231        -1.574097        -2.773851
