19
Iteration:  4593
 C        -0.145274        -0.335334         0.266947
 C         1.354851        -0.041955         0.108655
 C         1.970891         1.366426         0.196876
 O         3.320964         1.072487         0.114360
 C         3.373874        -0.390825        -0.066185
 C         2.343713        -0.951230         1.013709
 C         2.013417        -2.067359         0.000121
 C         2.147260        -0.853419        -0.906227
 O         1.961295        -0.776968        -2.254635
 H        -0.661941         0.529993         0.595664
 H        -0.668756        -0.461932        -0.669937
 H        -0.325753        -1.168037         0.962898
 H         1.573614         2.034801        -0.523009
 H         1.804833         1.823047         1.204676
 H         4.400898        -0.938961        -0.141438
 H         2.454427        -0.982847         2.077396
 H         2.697972        -2.913208         0.109622
 H         1.068838        -2.698626         0.055792
 H         2.486178        -1.507950        -2.720101
