19
Iteration:  2752charge 0 multiplicity 1
 C        -0.236216        -0.305816         0.336234
 C         1.322632        -0.052933         0.236870
 C         2.004747         1.394538         0.338080
 O         3.379076         1.054784         0.084280
 C         3.294498        -0.343147        -0.035827
 C         2.248454        -1.072196         0.931092
 C         1.973869        -2.145305        -0.139251
 C         2.166042        -0.834924        -0.932252
 O         2.203562        -0.692300        -2.298577
 H        -0.541474        -0.181660         1.303168
 H        -0.923702         0.120896        -0.417140
 H        -0.212192        -1.381010         0.156633
 H         1.617514         1.952615        -0.507599
 H         1.879639         1.923746         1.361478
 H         4.212323        -0.898496        -0.196600
 H         2.484384        -1.119504         1.962223
 H         2.587342        -2.987085        -0.261901
 H         1.059270        -2.631044        -0.161499
 H         1.291763        -1.119321        -2.554686
