19
Iteration:   232charge 0 multiplicity 1
 C        -0.143993         0.192177         0.146487
 C         1.383809         0.023400         0.172211
 C         2.240606         1.286393         0.370451
 O         3.529087         0.825459         0.119140
 C         3.309244        -0.529698         0.108242
 C         2.158951        -1.095530         0.973107
 C         1.991422        -2.155094        -0.114002
 C         2.139193        -0.880255        -0.915865
 O         1.707531        -0.750410        -2.334113
 H        -0.399078         1.069561         0.781622
 H        -0.545654         0.437668        -0.919302
 H        -0.668965        -0.617598         0.547770
 H         2.064401         2.164102        -0.289606
 H         2.164648         1.712384         1.426178
 H         4.317869        -1.100267         0.285312
 H         2.465165        -1.136211         2.018664
 H         2.783467        -2.857593        -0.194476
 H         0.993077        -2.565281        -0.072915
 H         2.135572        -1.262299        -2.956160
