19
Iteration:   333
 C        -0.187503         0.169098         0.324364
 C         1.366990         0.016808         0.281379
 C         2.181731         1.285087         0.106732
 O         3.535793         0.756902         0.095327
 C         3.314710        -0.570488         0.094902
 C         2.158838        -1.039027         1.031907
 C         1.876470        -2.147509        -0.141265
 C         2.094120        -0.852705        -0.904518
 O         2.002662        -0.634507        -2.312109
 H        -0.502386         0.288425         1.367070
 H        -0.611596         0.979738        -0.298674
 H        -0.743436        -0.724325        -0.108555
 H         2.003639         1.695374        -0.894456
 H         2.277083         2.099603         0.895103
 H         4.327090        -1.136414        -0.052440
 H         2.062822        -1.285441         2.159585
 H         2.622249        -2.935476        -0.311087
 H         0.903041        -2.699405        -0.044183
 H         1.444366        -1.425928        -2.686564
