19
Iteration:  1966
 C        -0.150300        -0.180696         0.083925
 C         1.361391        -0.106695         0.235731
 C         1.983322         1.269502         0.458960
 O         3.371366         1.008103         0.133640
 C         3.374875        -0.431205        -0.071263
 C         2.376946        -0.999189         0.987425
 C         2.011160        -2.119510        -0.132209
 C         2.164730        -0.793247        -0.883658
 O         1.906651        -0.664353        -2.286736
 H        -0.559201         0.438903         0.837067
 H        -0.527951        -0.045183        -0.932753
 H        -0.575328        -1.243445         0.204853
 H         1.680581         2.124333        -0.076662
 H         1.800111         1.561320         1.450184
 H         4.400093        -0.770605        -0.189899
 H         2.437236        -1.143811         2.063177
 H         2.645272        -3.040110        -0.236062
 H         0.952745        -2.380714        -0.063827
 H         1.888690        -1.509226        -2.675719
