19
Iteration:  1356
 C        -0.144372         0.019067         0.528266
 C         1.340906        -0.067681         0.128829
 C         2.051674         1.286562         0.203397
 O         3.428877         0.925608         0.079197
 C         3.282291        -0.475345         0.007463
 C         2.157844        -1.036039         0.936862
 C         1.881011        -2.184177        -0.057095
 C         2.117845        -0.910072        -0.945437
 O         2.197961        -0.728119        -2.390733
 H        -0.263794        -0.262565         1.643092
 H        -0.409864         1.118447         0.268290
 H        -0.806440        -0.532078        -0.118440
 H         1.726404         1.879837        -0.655494
 H         1.749922         1.733827         1.187966
 H         4.159062        -1.006107        -0.002480
 H         2.175452        -1.047058         2.015656
 H         2.749262        -2.905463        -0.315191
 H         0.908224        -2.727724         0.018043
 H         1.799663         0.141189        -2.616250
