19
Iteration:  2335
 C        -0.181914        -0.146241         0.232725
 C         1.321025        -0.114851         0.161987
 C         1.910072         1.311136         0.286315
 O         3.408031         1.061338         0.005437
 C         3.413067        -0.414630         0.038823
 C         2.351210        -1.098852         1.010303
 C         2.007388        -2.224450        -0.071645
 C         2.153642        -0.953340        -0.879299
 O         1.938461        -0.603617        -2.243687
 H        -0.615033         0.242387         1.079229
 H        -0.698314         0.202458        -0.720168
 H        -0.458606        -1.256456         0.144115
 H         1.542989         2.089862        -0.435120
 H         1.918884         1.771241         1.276238
 H         4.412644        -0.753884         0.019662
 H         2.235884        -1.166899         2.065262
 H         2.793097        -3.013814        -0.310979
 H         1.019588        -2.654774        -0.066626
 H         2.663398         0.060986        -2.514732
