19
Iteration:  3028charge 0 multiplicity 1
 C        -0.244309        -0.092383         0.230018
 C         1.283480        -0.157470         0.293285
 C         1.856656         1.247872         0.258628
 O         3.352524         0.964471         0.058467
 C         3.332757        -0.393131         0.032659
 C         2.397943        -1.111541         0.990254
 C         2.201064        -2.183292        -0.119053
 C         2.171069        -0.877596        -0.859129
 O         1.977477        -0.606170        -2.312383
 H        -0.591563         0.655979         0.975560
 H        -0.582099         0.444050        -0.817460
 H        -0.891043        -0.969924         0.363361
 H         1.353692         1.683272        -0.657586
 H         1.719329         1.729846         1.152076
 H         4.366035        -0.853747        -0.111042
 H         2.417192        -0.977178         2.190497
 H         3.063911        -2.786571        -0.319959
 H         1.249288        -2.789828        -0.137269
 H         2.683542         0.085273        -2.418087
