19
Iteration:  4422
 C        -0.165580        -0.104133         0.309301
 C         1.276505        -0.112640         0.201300
 C         1.947947         1.277485         0.269230
 O         3.313106         1.117023         0.127466
 C         3.347253        -0.387452        -0.047270
 C         2.337575        -1.050423         0.992913
 C         2.089326        -2.175037        -0.091751
 C         2.114670        -0.892132        -0.963784
 O         2.076158        -0.808573        -2.285937
 H        -0.606190        -1.157240         0.098563
 H        -0.384341        -0.036765         1.361504
 H        -0.551468         0.543567        -0.453375
 H         1.476925         1.831792        -0.580447
 H         1.674241         1.770814         1.161180
 H         4.411255        -0.683259        -0.131969
 H         2.462989        -1.260780         1.999808
 H         2.982828        -2.673741        -0.288363
 H         1.261211        -2.808063        -0.056431
 H         1.727448         0.017990        -2.537892
