19
Iteration:  4235charge 0 multiplicity 1
 C        -0.166721        -0.331784         0.205947
 C         1.348566        -0.114072         0.209554
 C         1.948303         1.316177         0.442077
 O         3.444539         1.066834         0.214893
 C         3.342975        -0.346188        -0.045782
 C         2.319093        -1.038653         0.903153
 C         2.008391        -2.147532        -0.144727
 C         2.195667        -0.766677        -0.945014
 O         1.924054        -0.739388        -2.320013
 H        -0.912746         0.335189         0.073350
 H        -0.455353        -0.872656        -0.716754
 H        -0.354799        -1.075064         0.977549
 H         1.619789         2.150682        -0.246189
 H         1.922767         1.762550         1.539900
 H         4.345209        -0.851571        -0.229922
 H         2.341807        -1.025006         1.923975
 H         2.762493        -2.919473        -0.349001
 H         0.974004        -2.485872         0.119499
 H         1.960959         0.038097        -2.833664
