19
Iteration:  1885charge 0 multiplicity 1
 C        -0.201357        -0.155915         0.433012
 C         1.300849        -0.092389         0.152372
 C         1.952025         1.365620         0.157439
 O         3.358260         0.979010         0.203574
 C         3.326460        -0.403372        -0.022206
 C         2.341413        -1.123019         0.931986
 C         1.865128        -2.164687        -0.101907
 C         2.224829        -0.852121        -0.971133
 O         2.171368        -0.722365        -2.321906
 H        -0.521915         0.003446         1.454721
 H        -0.877653         0.553228        -0.083360
 H        -0.636535        -1.135548         0.325048
 H         1.860894         1.811504        -0.807699
 H         1.677810         1.990326         0.968770
 H         4.362931        -0.718483        -0.175044
 H         2.533664        -1.087907         2.027064
 H         2.610616        -2.875771        -0.259226
 H         0.882998        -2.606881        -0.050056
 H         1.982627         0.212889        -2.387835
