19
Iteration:  4602charge 0 multiplicity 1
 C        -0.186877        -0.250251         0.347870
 C         1.318760        -0.042989         0.137680
 C         1.937157         1.308735         0.204083
 O         3.360835         1.075831         0.050759
 C         3.354106        -0.361345        -0.011299
 C         2.311237        -0.958798         0.956906
 C         2.042986        -2.132021         0.028192
 C         2.195073        -0.887412        -0.904327
 O         1.997742        -0.758015        -2.292040
 H        -0.786357         0.609818         0.915748
 H        -0.589437        -0.482529        -0.681921
 H        -0.361269        -1.290962         0.769974
 H         1.570339         1.914568        -0.599611
 H         1.709060         1.782598         1.167790
 H         4.371540        -0.762049        -0.141930
 H         2.292126        -1.061657         2.083050
 H         2.854940        -2.841734        -0.002911
 H         0.982682        -2.428926         0.005460
 H         2.603493        -1.476377        -2.691107
