19
Iteration:  2261charge 0 multiplicity 1
 C        -0.140421        -0.097105         0.408781
 C         1.353798        -0.050331         0.117464
 C         1.838883         1.267759         0.345880
 O         3.362854         0.990544         0.157805
 C         3.343338        -0.402833         0.033212
 C         2.258650        -0.952295         0.893036
 C         2.062137        -2.157425        -0.237199
 C         2.226455        -0.900624        -0.927198
 O         2.045103        -0.884344        -2.323953
 H        -0.278431         0.158027         1.413816
 H        -0.596488         0.863766        -0.020814
 H        -0.883916        -0.847121        -0.064144
 H         1.727074         2.132597        -0.259180
 H         1.520196         1.695838         1.350979
 H         4.413296        -0.755729        -0.110775
 H         2.313260        -0.944853         1.921988
 H         2.923743        -2.806801        -0.231836
 H         1.144904        -2.620276        -0.332125
 H         1.932387         0.074236        -2.544915
