19
Iteration:   203charge 0 multiplicity 1
 C        -0.085809         0.062946         0.070243
 C         1.399355        -0.008172         0.135797
 C         2.177214         1.258725         0.214770
 O         3.599927         0.848100         0.279027
 C         3.342231        -0.529368        -0.077739
 C         2.284441        -1.066386         0.917893
 C         1.800784        -2.171107         0.018518
 C         2.027507        -0.871758        -0.877529
 O         1.740769        -0.621503        -2.198824
 H        -0.458358         0.627556         0.928452
 H        -0.378865         0.673872        -0.799923
 H        -0.579777        -0.955715         0.092822
 H         2.090871         1.964237        -0.566243
 H         1.922620         1.718791         1.145810
 H         4.312446        -1.097692        -0.232940
 H         2.688177        -0.983266         2.011316
 H         2.564533        -3.031428        -0.067808
 H         0.701696        -2.393676         0.248680
 H         2.385980        -1.099624        -2.782799
