19
Iteration:   170
 C        -0.147607         0.048667         0.294227
 C         1.344456         0.016189         0.300776
 C         2.172048         1.304204         0.122864
 O         3.630750         0.873648         0.008004
 C         3.365765        -0.564916         0.099307
 C         2.140504        -1.126994         0.972151
 C         1.770189        -2.164699        -0.072429
 C         2.075003        -0.857248        -0.899524
 O         1.908155        -0.579509        -2.260464
 H        -0.560524         0.127900         1.297383
 H        -0.487951         0.902621        -0.291711
 H        -0.558883        -0.835995        -0.232966
 H         1.917097         1.798717        -0.810047
 H         2.063696         1.920658         0.998662
 H         4.330215        -1.168614         0.093676
 H         2.193944        -1.306419         2.132678
 H         2.490419        -3.027661        -0.238880
 H         0.789946        -2.752875        -0.060849
 H         2.610600        -1.072909        -2.580269
