19
Iteration:  1417
 C        -0.059410        -0.064642         0.104756
 C         1.408466         0.001509         0.113434
 C         2.057963         1.307746         0.407498
 O         3.460910         0.879250         0.181597
 C         3.326991        -0.495802        -0.013213
 C         2.286386        -1.013635         0.961032
 C         2.005870        -2.140510         0.024923
 C         2.172696        -0.852953        -0.932999
 O         1.692268        -0.691077        -2.343160
 H        -0.655860         0.352475         0.868090
 H        -0.414040         0.460155        -0.714025
 H        -0.380128        -1.135726         0.158428
 H         1.791848         2.201590        -0.176005
 H         1.907436         1.652980         1.421248
 H         4.415541        -0.893959        -0.090228
 H         2.276514        -1.072389         2.066133
 H         2.745332        -2.853689        -0.209018
 H         1.061278        -2.629830         0.202950
 H         2.460338        -0.844996        -2.852196
