19
Iteration:   864charge 0 multiplicity 1
 C        -0.086095        -0.012618         0.190370
 C         1.390307        -0.026575         0.305864
 C         2.063185         1.339349         0.228834
 O         3.452777         0.895487         0.180550
 C         3.304044        -0.541280        -0.051845
 C         2.347864        -1.148384         0.958019
 C         1.835099        -2.139611        -0.096992
 C         2.049806        -0.813573        -0.863443
 O         1.952103        -0.720397        -2.274759
 H        -0.578719         0.480827         1.060538
 H        -0.182039         0.475015        -0.919210
 H        -0.363799        -1.014361         0.121158
 H         1.744341         1.952800        -0.613054
 H         1.994872         2.006005         1.055014
 H         4.265943        -0.937448        -0.222533
 H         2.508111        -1.295144         1.967003
 H         2.697897        -2.836156        -0.294998
 H         0.824309        -2.520312        -0.053120
 H         1.814245         0.138839        -2.558593
