19
Iteration:  1893
 C        -0.290345        -0.141369         0.380498
 C         1.310065        -0.092076         0.215851
 C         1.966660         1.325394         0.133486
 O         3.378100         1.015318         0.197430
 C         3.376010        -0.401256        -0.002727
 C         2.355453        -1.156679         0.974147
 C         1.943885        -2.168442        -0.120964
 C         2.189157        -0.907383        -0.900862
 O         2.104836        -0.694632        -2.333434
 H        -0.447184         0.146374         1.526676
 H        -0.761829         0.460302        -0.351992
 H        -0.647836        -1.099948         0.192525
 H         1.722522         1.849939        -0.871950
 H         1.767868         2.185710         0.903966
 H         4.402027        -0.707335        -0.113326
 H         2.487014        -1.207620         1.985736
 H         2.547131        -3.008095        -0.545207
 H         0.900026        -2.385929        -0.081131
 H         2.151893         0.278259        -2.542429
