19
Iteration:  1513charge 0 multiplicity 1
 C        -0.185034        -0.127643         0.517857
 C         1.245140         0.013694         0.075688
 C         2.031636         1.357510         0.305972
 O         3.427721         0.906575         0.139136
 C         3.300055        -0.499703         0.001264
 C         2.164468        -0.980202         0.895620
 C         1.955508        -2.125467        -0.143126
 C         2.194495        -0.882493        -1.002547
 O         2.213712        -0.741454        -2.367890
 H        -0.605140         0.720749         0.967082
 H        -1.017827        -0.207893        -0.335350
 H        -0.284349        -0.896961         1.357669
 H         1.773743         2.173948        -0.405440
 H         1.857767         1.787955         1.353429
 H         4.281764        -1.174392         0.033753
 H         2.196408        -1.037762         2.017305
 H         2.717806        -2.975705        -0.347290
 H         0.931485        -2.630860         0.010348
 H         1.477337        -0.323181        -2.734389
