19
Iteration:  4916charge 0 multiplicity 1
 C        -0.087875        -0.289383         0.142574
 C         1.370810         0.013975         0.179267
 C         1.932770         1.438779         0.181377
 O         3.374175         1.085568         0.109740
 C         3.376541        -0.317416         0.011237
 C         2.299586        -0.947117         0.995816
 C         2.067636        -2.060941         0.023939
 C         2.117555        -0.864484        -0.873534
 O         1.883512        -1.053372        -2.231598
 H        -0.320117        -1.331764         0.549510
 H        -0.737453         0.398577         0.687366
 H        -0.388891        -0.387240        -0.911115
 H         1.761182         2.158507        -0.587223
 H         1.785990         1.940208         1.142280
 H         4.329986        -0.747561        -0.024528
 H         2.589666        -1.055322         2.128041
 H         2.759614        -2.990765        -0.146969
 H         1.261657        -2.801171        -0.029664
 H         1.960769        -0.231942        -2.705905
