19
Iteration:  2358charge 0 multiplicity 1
 C        -0.186681        -0.111551         0.276588
 C         1.280668        -0.124530         0.232229
 C         1.988121         1.259454         0.270608
 O         3.337006         0.920573        -0.022025
 C         3.295330        -0.442525        -0.019539
 C         2.274784        -1.092177         1.005041
 C         2.128717        -2.162766        -0.069506
 C         2.127635        -0.864794        -0.896197
 O         2.030145        -0.552718        -2.229216
 H        -0.575343         0.617429         0.912335
 H        -0.690572        -0.065424        -0.772075
 H        -0.606229        -1.144336         0.585535
 H         1.543684         1.848701        -0.586558
 H         1.823006         1.847470         1.191423
 H         4.337471        -0.830250        -0.178611
 H         2.339883        -1.109269         2.060762
 H         3.126175        -2.701320         0.004017
 H         1.323877        -2.856546        -0.204644
 H         2.650143         0.121669        -2.507585
