19
Iteration:  2713charge 0 multiplicity 1
 C        -0.268512        -0.103060         0.461522
 C         1.218009        -0.101423         0.105020
 C         1.885544         1.234515         0.355088
 O         3.313118         1.055847         0.088405
 C         3.297530        -0.393646        -0.038633
 C         2.362196        -1.075722         0.916983
 C         2.064575        -2.217875        -0.103661
 C         2.240793        -0.857940        -0.989161
 O         2.277353        -0.696811        -2.335742
 H        -0.324231         0.217817         1.601544
 H        -0.946469         0.610603        -0.096321
 H        -0.792432        -1.062204         0.424928
 H         1.537847         1.861038        -0.552928
 H         1.672456         1.875543         1.263589
 H         4.306530        -0.741409        -0.051829
 H         2.369443        -1.079137         2.042354
 H         2.838016        -3.028768        -0.265311
 H         0.941344        -2.534522        -0.113504
 H         1.416915        -0.533733        -2.712854
