19
Iteration:  4763
 C        -0.209077        -0.046081         0.221810
 C         1.302903        -0.066408         0.193135
 C         1.900751         1.337195         0.141530
 O         3.279388         1.124112        -0.002690
 C         3.376139        -0.375085         0.017319
 C         2.341421        -1.011536         1.047851
 C         2.185563        -2.203325         0.007520
 C         2.180776        -0.923661        -0.827910
 O         1.959818        -0.977323        -2.251024
 H        -0.639378        -0.991504         0.002523
 H        -0.550882         0.281150         1.179489
 H        -0.493976         0.677175        -0.499228
 H         1.391900         1.671166        -0.816692
 H         1.673985         2.033400         0.982309
 H         4.342176        -0.681258        -0.097614
 H         2.502724        -1.093895         2.200537
 H         3.222344        -2.718584        -0.039764
 H         1.267147        -2.715664         0.151560
 H         2.562376        -0.203687        -2.543473
