19
Iteration:  1314charge 0 multiplicity 1
 C        -0.148352        -0.054532         0.464583
 C         1.302888        -0.058563         0.300324
 C         2.048788         1.338997         0.159363
 O         3.467897         0.893501         0.015011
 C         3.294452        -0.545830        -0.018636
 C         2.212198        -1.046274         0.976488
 C         1.860447        -2.152849        -0.132854
 C         2.042189        -0.838311        -0.923434
 O         2.254322        -0.644478        -2.290911
 H        -0.368436        -0.039092         1.470417
 H        -0.702847         0.875542         0.051985
 H        -0.593303        -0.788106        -0.115172
 H         1.679998         1.849403        -0.742204
 H         2.027633         1.899966         1.088386
 H         4.239706        -0.974481        -0.141428
 H         2.131664        -1.154948         2.048306
 H         2.578186        -3.025495        -0.276561
 H         0.803123        -2.446378         0.021444
 H         1.366976        -0.745109        -2.826233
