19
Iteration:  2783
 C        -0.114010        -0.137193         0.204791
 C         1.374544        -0.168574         0.152241
 C         1.914448         1.253346         0.282511
 O         3.351378         1.012649         0.202504
 C         3.368166        -0.366710         0.039587
 C         2.307834        -1.013722         0.933279
 C         2.136064        -2.180053        -0.092419
 C         2.120068        -0.889208        -0.938185
 O         1.949266        -0.589328        -2.289447
 H        -0.520053         0.216865         1.164789
 H        -0.654765         0.362881        -0.607685
 H        -0.574625        -1.203479         0.153169
 H         1.534219         1.865538        -0.586800
 H         1.587702         1.817648         1.314247
 H         4.344319        -0.864979        -0.121289
 H         2.426858        -0.915720         1.982637
 H         3.039249        -2.797669        -0.219061
 H         1.224116        -2.700880         0.029912
 H         1.554932        -1.370718        -2.622512
