19
Iteration:  3737
 C        -0.258403        -0.254794         0.431755
 C         1.307586        -0.114622         0.192290
 C         1.895297         1.215673         0.330662
 O         3.328651         0.955455         0.183026
 C         3.335910        -0.465971        -0.029717
 C         2.376175        -1.070679         0.876278
 C         2.059066        -2.149656        -0.298040
 C         2.145165        -0.768648        -0.923074
 O         2.106802        -0.517345        -2.293969
 H        -0.533488        -1.100277         1.091064
 H        -0.739256         0.555150         1.019237
 H        -0.639547        -0.473519        -0.538020
 H         1.450990         1.922038        -0.449199
 H         1.679580         1.772077         1.196422
 H         4.370624        -0.967839        -0.219233
 H         2.462143        -1.120961         1.947815
 H         3.018734        -2.842956        -0.427740
 H         1.083810        -2.616672        -0.300559
 H         2.603621         0.317733        -2.431752
