19
Iteration:  2168charge 0 multiplicity 1
 C        -0.203905        -0.186608         0.277024
 C         1.320457        -0.141237         0.137897
 C         1.961069         1.272948         0.300403
 O         3.367314         0.956075         0.203835
 C         3.364108        -0.431082        -0.015004
 C         2.353820        -0.999721         0.896934
 C         2.073161        -2.146503        -0.088458
 C         2.186625        -0.886127        -0.922313
 O         1.898696        -0.550229        -2.259959
 H        -0.538442         0.787849         0.798340
 H        -0.577663        -0.118631        -0.753161
 H        -0.631768        -1.080752         0.636210
 H         1.959954         1.902434        -0.643944
 H         1.703028         1.978675         1.078808
 H         4.394567        -0.853911        -0.207508
 H         2.521814        -1.178049         2.050114
 H         2.824521        -2.965962        -0.196344
 H         0.993924        -2.581495         0.058928
 H         2.478780        -1.010038        -2.878962
