19
Iteration:  3301charge 0 multiplicity 1
 C        -0.225954        -0.374421         0.265813
 C         1.322789        -0.073559         0.136459
 C         1.988930         1.348407         0.343292
 O         3.441506         1.034119         0.193503
 C         3.337372        -0.359104        -0.072657
 C         2.327048        -1.019978         0.915792
 C         2.037662        -2.113120        -0.006605
 C         2.124597        -0.847657        -0.950327
 O         1.997868        -0.723267        -2.334732
 H        -0.758089        -0.251157         1.155494
 H        -0.788724         0.298929        -0.437950
 H        -0.434560        -1.305585        -0.104905
 H         1.666594         2.125156        -0.311032
 H         1.803736         1.669110         1.360141
 H         4.264452        -0.850259        -0.208379
 H         2.313306        -1.081641         2.069516
 H         2.769072        -2.927242        -0.227099
 H         1.004003        -2.489274        -0.009558
 H         2.239751         0.259773        -2.532444
