19
Iteration:  3804
 C        -0.274250        -0.168662         0.383046
 C         1.275518        -0.161877         0.200920
 C         1.933626         1.231465         0.490641
 O         3.355807         1.019977         0.245723
 C         3.329037        -0.405648        -0.064175
 C         2.322638        -1.187252         0.803494
 C         2.158653        -2.180870        -0.266176
 C         2.106132        -0.752442        -0.995171
 O         2.066059        -0.605804        -2.327782
 H        -0.493736         0.466369         1.241692
 H        -0.711475         0.329427        -0.422593
 H        -0.565664        -1.151064         0.617595
 H         1.474828         2.163410        -0.061636
 H         1.838920         1.577752         1.508307
 H         4.342555        -0.732326        -0.498913
 H         2.364429        -1.432539         1.828564
 H         3.180654        -2.707238        -0.477583
 H         1.237365        -2.727673        -0.275474
 H         2.417549         0.236317        -2.701819
