19
Iteration:   233charge 0 multiplicity 1
 C        -0.137447         0.195766         0.150120
 C         1.380447         0.022649         0.172752
 C         2.239217         1.286160         0.366773
 O         3.530752         0.826714         0.114065
 C         3.301130        -0.527499         0.109607
 C         2.154509        -1.094033         0.966399
 C         1.990623        -2.147872        -0.129588
 C         2.138804        -0.871568        -0.905624
 O         1.712596        -0.756108        -2.326603
 H        -0.374787         1.072507         0.788658
 H        -0.555331         0.422504        -0.926438
 H        -0.686384        -0.620152         0.563527
 H         2.051456         2.135000        -0.257853
 H         2.158935         1.675447         1.419060
 H         4.327466        -1.117265         0.287754
 H         2.496417        -1.148952         2.045948
 H         2.789581        -2.875246        -0.181497
 H         0.979220        -2.601529        -0.086663
 H         2.159490        -1.291952        -2.942595
