19
Iteration:  2026charge 0 multiplicity 1
 C        -0.183938        -0.105186         0.454777
 C         1.274726        -0.104817         0.128585
 C         1.902362         1.291961         0.156615
 O         3.316480         0.953585         0.202951
 C         3.354443        -0.449037        -0.075477
 C         2.251196        -1.052482         0.905116
 C         2.100399        -2.222875        -0.051072
 C         2.143928        -0.868205        -0.983034
 O         2.199861        -0.572290        -2.340395
 H        -0.172481         0.107358         1.583361
 H        -0.906882         0.606043         0.002604
 H        -0.530949        -1.137040         0.447958
 H         1.759458         1.900922        -0.788514
 H         1.509552         1.798052         1.126870
 H         4.357134        -0.990320         0.062867
 H         2.280464        -1.140267         2.080627
 H         2.964123        -2.934753        -0.117916
 H         1.115815        -2.778239         0.070774
 H         1.307692        -0.253571        -2.627956
