19
Iteration:   606charge 0 multiplicity 1
 C        -0.114313        -0.011463         0.394567
 C         1.370021        -0.044396         0.252304
 C         2.090000         1.331815         0.118656
 O         3.518782         0.914138         0.121998
 C         3.345223        -0.512549         0.047417
 C         2.267326        -1.144336         0.958343
 C         1.702092        -2.133520        -0.050228
 C         2.148113        -0.921821        -0.932455
 O         1.975485        -0.604064        -2.347695
 H        -0.413202         0.538453         1.299476
 H        -0.406916         0.541485        -0.509331
 H        -0.754987        -0.987162         0.431638
 H         1.639299         1.654055        -0.823469
 H         1.873933         2.042762         0.827047
 H         4.275301        -0.962743        -0.021578
 H         2.566415        -1.355502         1.938920
 H         2.219074        -3.081697        -0.183902
 H         0.664721        -2.289259         0.042422
 H         2.783619        -0.677916        -2.775554
