19
Iteration:  4254
 C        -0.172040        -0.296699         0.349853
 C         1.339861        -0.089682         0.164483
 C         1.928391         1.314072         0.374443
 O         3.295553         1.052201         0.196415
 C         3.405963        -0.401280        -0.005862
 C         2.328114        -1.064631         0.926559
 C         2.026248        -2.097164        -0.177482
 C         2.142391        -0.860365        -0.983672
 O         2.061010        -0.736420        -2.375100
 H        -0.691048         0.831965         0.713988
 H        -0.659911        -0.527856        -0.614709
 H        -0.330898        -1.002474         1.199852
 H         1.549087         2.133829        -0.351804
 H         1.857348         1.860861         1.355640
 H         4.424466        -0.729010        -0.088547
 H         2.477312        -1.334864         2.041018
 H         2.737680        -2.831483        -0.330580
 H         1.005670        -2.550132        -0.276939
 H         1.993770         0.189810        -2.496857
