19
Iteration:   856charge 0 multiplicity 1
 C        -0.140130         0.006298         0.263930
 C         1.358612         0.039814         0.264575
 C         2.098044         1.326589         0.296134
 O         3.486591         0.906321         0.149790
 C         3.318447        -0.476330        -0.031073
 C         2.310164        -1.091777         1.014474
 C         1.864830        -2.165823        -0.181249
 C         2.007145        -0.858868        -0.891901
 O         2.008691        -0.781020        -2.312538
 H        -0.646835         0.277161         1.140062
 H        -0.480754         0.665145        -0.632214
 H        -0.452959        -1.056613         0.114209
 H         1.868976         1.826434        -0.659503
 H         1.873737         2.016334         1.172152
 H         4.254877        -0.985855        -0.389187
 H         2.464355        -1.473986         2.076434
 H         2.589149        -2.989630        -0.385578
 H         0.878034        -2.614973         0.002905
 H         1.979498         0.115504        -2.572760
