19
Iteration:   366charge 0 multiplicity 1
 C        -0.111756         0.225283         0.135381
 C         1.424337         0.066685         0.126257
 C         2.125841         1.358585         0.343117
 O         3.469104         0.861257         0.226635
 C         3.397688        -0.527597        -0.059136
 C         2.376801        -1.061870         0.881075
 C         1.737367        -2.278269        -0.008317
 C         2.054472        -0.958064        -0.893213
 O         1.962169        -0.795548        -2.307557
 H        -0.419220         0.397906         1.176233
 H        -0.420074         1.173794        -0.279401
 H        -0.714672        -0.679549        -0.167138
 H         1.895260         2.220638        -0.352200
 H         1.903488         1.718801         1.423362
 H         4.314770        -1.102560        -0.329426
 H         2.406215        -1.101539         2.026296
 H         2.369298        -3.120550        -0.249468
 H         0.724453        -2.519819         0.340554
 H         1.048664        -0.796134        -2.522044
