19
Iteration:  2142charge 0 multiplicity 1
 C        -0.158793        -0.075071         0.215647
 C         1.329938        -0.047171         0.244539
 C         1.965945         1.301257         0.344854
 O         3.402336         1.094870         0.240450
 C         3.362903        -0.358065        -0.006577
 C         2.347037        -1.191612         0.958361
 C         2.091421        -2.203019        -0.218994
 C         2.082091        -0.825226        -0.852621
 O         1.896633        -0.733967        -2.333916
 H        -0.761854         0.657224         0.850392
 H        -0.443406         0.084759        -0.840010
 H        -0.395761        -1.166809         0.451498
 H         1.893853         1.905289        -0.652586
 H         1.644479         1.984631         1.187103
 H         4.396108        -0.750558        -0.180258
 H         2.491006        -1.346681         1.954581
 H         2.982801        -2.764154        -0.553162
 H         1.231127        -2.800024        -0.238752
 H         1.981772        -1.633226        -2.620020
