19
Iteration:  1812charge 0 multiplicity 1
 C        -0.071264        -0.050688         0.201183
 C         1.342375        -0.120423         0.288986
 C         1.937710         1.260844         0.362809
 O         3.326952         1.017811         0.130141
 C         3.332488        -0.427698        -0.035869
 C         2.349059        -1.075353         0.952748
 C         1.991223        -2.161958        -0.093863
 C         2.030588        -0.818204        -0.893974
 O         2.116016        -0.684417        -2.354667
 H        -0.568183         0.365760         1.025119
 H        -0.379075         0.699878        -0.577729
 H        -0.748089        -0.979464         0.111737
 H         1.522946         1.933180        -0.486652
 H         1.854842         1.668735         1.426413
 H         4.327186        -0.788234        -0.371135
 H         2.649238        -1.324720         2.044399
 H         2.833905        -2.970161        -0.119832
 H         0.921415        -2.571742        -0.037083
 H         1.611457        -1.490815        -2.729696
