19
Iteration:  1080
 C        -0.164206        -0.006651         0.056430
 C         1.343709         0.012303         0.195253
 C         2.217748         1.310448         0.474363
 O         3.593276         0.840684         0.216722
 C         3.312033        -0.544058        -0.015943
 C         2.187218        -1.060723         0.975232
 C         2.049231        -2.125750        -0.148708
 C         2.057093        -0.799555        -0.955783
 O         1.702975        -0.621475        -2.256435
 H        -0.217214        -0.259532        -1.074246
 H        -0.538704        -0.842001         0.621296
 H        -0.680980         0.891268         0.455322
 H         1.770400         1.959438        -0.302252
 H         1.992880         1.547445         1.543695
 H         4.228635        -1.187495        -0.300623
 H         2.341315        -1.127444         2.045253
 H         2.954489        -2.797211        -0.182528
 H         1.137465        -2.759031        -0.286621
 H         2.286119        -1.209368        -2.770154
