19
Iteration:  4566charge 0 multiplicity 1
 C        -0.166365        -0.293898         0.126703
 C         1.356962        -0.045136         0.184593
 C         1.986331         1.329412         0.226322
 O         3.400030         1.109404         0.166555
 C         3.411725        -0.342915        -0.020959
 C         2.384568        -0.979833         0.986809
 C         2.081250        -2.127488         0.001783
 C         2.150460        -0.851071        -0.894975
 O         1.787927        -0.786018        -2.239304
 H        -1.077943         0.519660        -0.137006
 H        -0.193442        -0.844498        -0.871038
 H        -0.562488        -0.925095         1.022460
 H         1.599957         1.903863        -0.690743
 H         1.825777         1.911896         1.123159
 H         4.394162        -0.758294        -0.095276
 H         2.436329        -1.092776         2.134706
 H         2.833771        -2.939085         0.084262
 H         1.106853        -2.538394         0.112150
 H         2.222091        -1.519674        -2.759825
