19
Iteration:  1473charge 0 multiplicity 1
 C        -0.155676        -0.052227         0.283540
 C         1.377530        -0.017145         0.365445
 C         2.004491         1.329134         0.177770
 O         3.364521         0.945355         0.147134
 C         3.293875        -0.558706        -0.027262
 C         2.307954        -1.055089         0.933944
 C         1.893166        -2.203778        -0.200256
 C         2.149856        -0.883806        -0.904562
 O         2.108241        -0.560518        -2.241264
 H        -0.453138         0.941701         0.688989
 H        -0.567935        -0.376560        -0.636571
 H        -0.572272        -0.795329         1.013556
 H         1.688925         1.643870        -0.833599
 H         1.946406         1.988021         1.011038
 H         4.317538        -0.867078        -0.183597
 H         2.484684        -1.361637         1.949396
 H         2.640646        -2.939398        -0.295896
 H         0.912592        -2.546153        -0.004337
 H         1.643655        -1.387985        -2.665347
