19
Iteration:  4698
 C        -0.112999        -0.346897         0.234090
 C         1.337600         0.019843         0.157083
 C         2.012749         1.388799         0.204300
 O         3.356903         1.116246         0.041604
 C         3.366419        -0.397146        -0.004198
 C         2.286110        -0.917812         1.021708
 C         2.000526        -2.109011        -0.000944
 C         2.125139        -0.871613        -0.889254
 O         1.998080        -0.966485        -2.211778
 H        -0.344354        -1.160590         0.969647
 H        -0.638983         0.607911         0.267856
 H        -0.517304        -0.767845        -0.693025
 H         1.689810         2.071736        -0.711900
 H         1.711043         1.876527         1.154717
 H         4.207939        -0.913879        -0.197503
 H         2.488221        -0.865925         2.173858
 H         2.851090        -2.725604        -0.151971
 H         1.034293        -2.459852        -0.084103
 H         1.708811        -0.107506        -2.598937
