19
Iteration:  2813charge 0 multiplicity 1
 C        -0.268397        -0.062749         0.131580
 C         1.324373        -0.190166         0.240393
 C         1.891700         1.334216         0.272628
 O         3.369129         1.007642         0.214678
 C         3.423813        -0.400257         0.018268
 C         2.417917        -1.133824         0.949702
 C         2.205761        -2.169262        -0.181471
 C         2.136832        -0.836178        -0.853187
 O         1.854762        -0.662566        -2.221302
 H        -0.796062         0.623437         0.946285
 H        -0.558752         0.450280        -0.781883
 H        -0.835085        -1.082182         0.160422
 H         1.614314         1.874668        -0.660715
 H         1.761175         1.999588         1.056101
 H         4.507814        -0.658909        -0.266832
 H         2.473886        -1.231645         2.064935
 H         3.220273        -2.690528        -0.435237
 H         1.197047        -2.728796        -0.073123
 H         2.299125        -1.427475        -2.751114
