19
Iteration:    33
 C        -0.113685         0.119297         0.131870
 C         1.373385        -0.022029         0.264894
 C         2.152051         1.328586         0.166540
 O         3.510708         0.809376         0.063748
 C         3.366654        -0.614997        -0.006104
 C         2.325945        -1.187405         1.080609
 C         1.830731        -2.149489        -0.084715
 C         2.046003        -0.898619        -0.822797
 O         1.898863        -0.539783        -2.198848
 H        -0.483746         1.022539         0.663191
 H        -0.101427         0.457111        -0.922429
 H        -0.880646        -0.772039         0.093626
 H         1.947188         2.053160        -0.495397
 H         2.105971         1.817055         1.159942
 H         4.348931        -1.044998        -0.109181
 H         2.339810        -1.214354         2.175140
 H         2.559793        -2.839967        -0.512612
 H         0.787462        -2.494181         0.027216
 H         1.111359        -1.057677        -2.597129
