19
Iteration:   951charge 0 multiplicity 1
 C        -0.177237         0.026922         0.404070
 C         1.304777        -0.091525         0.200864
 C         2.092715         1.326761         0.442316
 O         3.437028         0.986340         0.199476
 C         3.370294        -0.439304        -0.025996
 C         2.371091        -1.138895         0.846294
 C         1.733611        -2.121218        -0.208512
 C         2.103692        -0.837906        -0.987078
 O         2.093109        -0.867697        -2.381947
 H        -0.700719         0.897011        -0.096867
 H        -0.808620        -0.872657         0.094489
 H        -0.394907         0.268751         1.410785
 H         1.748674         2.054229        -0.376451
 H         1.921076         1.787562         1.404383
 H         4.317471        -0.890344        -0.338788
 H         2.218875        -1.305458         1.880081
 H         2.325950        -3.043751        -0.453995
 H         0.673796        -2.240783         0.022954
 H         2.689734        -0.113161        -2.617111
