19
Iteration:  4532
 C        -0.138020        -0.109020         0.127278
 C         1.324080        -0.072858         0.185069
 C         1.894293         1.269676         0.190672
 O         3.313320         1.083189         0.087425
 C         3.350289        -0.417923         0.023085
 C         2.366540        -1.016457         0.976644
 C         2.243593        -2.235324        -0.035727
 C         2.151367        -0.906478        -0.873023
 O         1.835761        -0.709878        -2.168831
 H        -0.694366         0.828029        -0.465524
 H        -0.384098        -1.188565        -0.151388
 H        -0.553486        -0.012314         1.186111
 H         1.604190         1.989699        -0.653547
 H         1.658382         1.770681         1.136705
 H         4.418165        -0.556386        -0.073013
 H         2.412356        -1.053080         2.068542
 H         3.175743        -2.814952        -0.032306
 H         1.296786        -2.754641         0.109456
 H         2.420903        -1.168777        -2.870810
