19
Iteration:  1489charge 0 multiplicity 1
 C        -0.175157        -0.084972         0.472196
 C         1.319634        -0.092054         0.158247
 C         2.012669         1.309841         0.186946
 O         3.441341         0.932964         0.174527
 C         3.341809        -0.430235        -0.039903
 C         2.228723        -1.098615         0.949663
 C         1.885658        -2.159814        -0.091364
 C         2.138652        -0.897595        -0.930804
 O         2.189041        -0.598122        -2.353999
 H        -0.673596         0.863268         0.714723
 H        -0.724949        -0.235388        -0.506710
 H        -0.496800        -0.746068         1.263268
 H         1.774096         1.932398        -0.695731
 H         1.679784         1.943153         1.074613
 H         4.350558        -0.914891        -0.118432
 H         2.323641        -1.102503         2.057529
 H         2.524486        -3.094673        -0.262563
 H         0.798684        -2.471200        -0.206888
 H         1.403701        -0.940108        -2.831440
