19
Iteration:   280
 C        -0.152774         0.125761         0.382730
 C         1.371413         0.008339         0.235234
 C         2.080294         1.297061         0.247334
 O         3.509613         0.816479         0.119515
 C         3.278603        -0.655979        -0.007629
 C         2.279805        -1.016134         0.914982
 C         1.689217        -2.120341         0.039333
 C         2.090604        -0.868064        -0.990398
 O         2.125703        -0.628911        -2.416413
 H        -0.440159         0.939190         1.073933
 H        -0.519372         0.393192        -0.600537
 H        -0.739382        -0.856409         0.731996
 H         1.921918         1.980448        -0.507750
 H         2.037924         1.834504         1.155834
 H         4.214272        -1.240267        -0.044274
 H         2.662279        -1.223748         2.003830
 H         2.319163        -3.097600         0.061483
 H         0.564111        -2.265095        -0.025208
 H         2.228806        -1.562739        -2.886457
