19
Iteration:  2174
 C        -0.229678        -0.194784         0.279647
 C         1.301745        -0.111104         0.160656
 C         1.998127         1.221823         0.268470
 O         3.422423         0.994857         0.165798
 C         3.408294        -0.406692         0.012793
 C         2.334600        -1.033286         0.937750
 C         2.029303        -2.177723        -0.058987
 C         2.183769        -0.912775        -0.938149
 O         1.890410        -0.509084        -2.303945
 H        -0.558396         0.651246         0.898778
 H        -0.648899        -0.208809        -0.736278
 H        -0.606900        -1.191781         0.691036
 H         1.735697         1.867777        -0.592429
 H         1.542364         1.844324         1.115765
 H         4.411097        -0.878052         0.058037
 H         2.413030        -0.984484         1.959883
 H         2.749629        -2.984946        -0.144600
 H         1.070750        -2.544831         0.049824
 H         2.624748        -0.812606        -2.957599
