19
Iteration:  4960charge 0 multiplicity 1
 C        -0.183742        -0.189116         0.330744
 C         1.313005        -0.072851         0.127653
 C         1.857992         1.323264         0.072324
 O         3.333181         1.055235        -0.043186
 C         3.291220        -0.404847         0.028155
 C         2.332178        -0.969687         1.026366
 C         2.100350        -2.161819         0.060278
 C         2.163990        -0.945635        -0.866364
 O         2.102975        -0.777107        -2.243958
 H        -0.544474        -0.801369         1.219082
 H        -0.546054         0.816474         0.483671
 H        -0.769603        -0.776675        -0.352811
 H         1.464202         1.988768        -0.725277
 H         1.668821         1.917742         0.980463
 H         4.290488        -0.626106        -0.146143
 H         2.428246        -1.042242         2.154676
 H         2.865193        -3.050283         0.044610
 H         1.130300        -2.692276         0.175499
 H         2.589777         0.009907        -2.520143
