19
Iteration:  1150charge 0 multiplicity 1
 C        -0.191640         0.023759         0.572079
 C         1.264875         0.053035         0.283787
 C         2.084591         1.343017         0.224559
 O         3.475237         0.882763         0.101637
 C         3.269732        -0.613637        -0.067685
 C         2.183169        -1.060568         0.898734
 C         1.842238        -2.160785        -0.171250
 C         2.065557        -0.862270        -0.953789
 O         2.291042        -0.645600        -2.343064
 H        -0.768759         0.800795         0.179299
 H        -0.697378        -0.953020         0.018476
 H        -0.389085        -0.375451         1.573050
 H         1.981831         1.924050        -0.755275
 H         2.005276         1.959437         1.118970
 H         4.215315        -1.080313        -0.095134
 H         2.268936        -1.247280         1.979327
 H         2.617556        -2.973925        -0.318684
 H         0.804672        -2.530435        -0.325009
 H         1.546106        -0.836553        -2.873822
