19
Iteration:  2017
 C        -0.270781        -0.145324         0.486652
 C         1.292378        -0.100904         0.089471
 C         1.927736         1.238329         0.185975
 O         3.367654         0.915540         0.235902
 C         3.341064        -0.428951        -0.061210
 C         2.259242        -1.019375         0.882751
 C         2.099855        -2.143334        -0.054209
 C         2.194540        -0.824384        -0.948466
 O         2.152257        -0.615391        -2.352803
 H        -0.424982         0.288295         1.480783
 H        -0.755025         0.554162        -0.312912
 H        -0.720579        -1.225164         0.438649
 H         1.664564         1.889525        -0.769009
 H         1.708668         1.912882         1.147295
 H         4.438498        -0.757056        -0.034629
 H         2.413031        -1.250444         2.061125
 H         2.932082        -2.773800        -0.235076
 H         1.129246        -2.704922        -0.086624
 H         1.230825        -0.500324        -2.716639
