19
Iteration:   599charge 0 multiplicity 1
 C        -0.101758         0.032923         0.331378
 C         1.374358        -0.051764         0.235530
 C         2.113275         1.312526         0.139473
 O         3.461254         0.873312         0.142321
 C         3.350707        -0.508456        -0.019983
 C         2.270763        -1.094281         0.941458
 C         1.759553        -2.147743        -0.034663
 C         2.169419        -0.919497        -0.954469
 O         1.919264        -0.626333        -2.291623
 H        -0.442377         0.508866         1.305707
 H        -0.525686         0.748103        -0.364264
 H        -0.602757        -0.966214         0.317761
 H         1.851868         1.789712        -0.871707
 H         1.853435         1.978331         1.069048
 H         4.328000        -1.049185         0.018307
 H         2.431637        -1.268545         2.056179
 H         2.333517        -3.098520         0.036998
 H         0.691590        -2.512228        -0.112612
 H         2.810077        -0.421020        -2.656408
