19
Iteration:  3475
 C        -0.269058        -0.056506         0.250521
 C         1.268480        -0.139708         0.132978
 C         1.949022         1.234071         0.249192
 O         3.364688         1.056121         0.151131
 C         3.392278        -0.348375         0.064786
 C         2.351203        -1.101097         0.917930
 C         2.229577        -2.193918        -0.171436
 C         2.156796        -0.842870        -0.869782
 O         1.968455        -0.777574        -2.230510
 H        -0.650522        -0.349380         1.171806
 H        -0.598220         0.985487        -0.022619
 H        -0.828032        -0.646044        -0.382012
 H         1.583131         1.972725        -0.590934
 H         1.683220         1.660402         1.355930
 H         4.370606        -0.654454        -0.186926
 H         2.338319        -1.355510         2.008620
 H         3.076465        -2.840205        -0.412302
 H         1.325019        -2.731482        -0.069015
 H         1.489474         0.025970        -2.414446
