19
Iteration:  3793charge 0 multiplicity 1
 C        -0.210121        -0.256879         0.468775
 C         1.289368        -0.146312         0.194553
 C         1.947263         1.223843         0.489991
 O         3.375001         0.994367         0.227111
 C         3.288958        -0.337783        -0.108823
 C         2.282965        -1.082328         0.865418
 C         2.073595        -2.099897        -0.339694
 C         2.115564        -0.787969        -0.968945
 O         2.119072        -0.627847        -2.356346
 H        -0.538234         0.121523         1.428703
 H        -0.681556         0.245117        -0.324840
 H        -0.710683        -1.175349         0.312902
 H         1.590195         1.977771        -0.292702
 H         1.774276         1.418107         1.521759
 H         4.294688        -0.882702        -0.211395
 H         2.333541        -1.224171         1.912503
 H         2.915366        -2.904359        -0.530638
 H         1.163228        -2.640603        -0.482277
 H         2.558213         0.199525        -2.407293
