19
Iteration:  3473
 C        -0.284889        -0.053590         0.250056
 C         1.279418        -0.138441         0.147604
 C         1.954647         1.240530         0.237676
 O         3.359505         1.052545         0.155317
 C         3.396664        -0.342952         0.049843
 C         2.336619        -1.101963         0.915567
 C         2.236296        -2.198148        -0.168845
 C         2.163835        -0.841638        -0.873765
 O         1.974658        -0.773252        -2.231998
 H        -0.618915        -0.386869         1.225479
 H        -0.677360         0.995472         0.017540
 H        -0.840280        -0.667197        -0.401213
 H         1.624591         1.943831        -0.555859
 H         1.715207         1.626076         1.336913
 H         4.350891        -0.638419        -0.179015
 H         2.334590        -1.357694         2.002334
 H         3.027283        -2.843241        -0.387267
 H         1.295745        -2.778034        -0.014036
 H         1.510363         0.016348        -2.438325
