19
Iteration:   705charge 0 multiplicity 1
 C        -0.095634         0.027915         0.114192
 C         1.336975         0.008869         0.302625
 C         2.145489         1.324697         0.374788
 O         3.499141         0.938078         0.167966
 C         3.397134        -0.444990        -0.070428
 C         2.333159        -1.178566         0.973941
 C         1.869490        -2.164615        -0.107089
 C         2.031340        -0.798669        -0.870717
 O         1.877925        -0.802111        -2.288522
 H        -0.574252         0.790815         0.786690
 H        -0.357693         0.344840        -0.859116
 H        -0.480984        -1.106460         0.098268
 H         1.952564         2.026551        -0.445898
 H         1.910528         1.808734         1.266814
 H         4.305361        -0.932667        -0.420698
 H         2.492864        -1.389715         2.078222
 H         2.537982        -2.935558        -0.478895
 H         0.887610        -2.606260         0.001551
 H         1.137348        -0.327357        -2.620671
