19
Iteration:  2780charge 0 multiplicity 1
 C        -0.138148        -0.172010         0.218358
 C         1.377549        -0.156494         0.130545
 C         1.905472         1.267821         0.300831
 O         3.351829         1.004764         0.188622
 C         3.391386        -0.382974         0.045266
 C         2.331817        -1.000362         0.936808
 C         2.117613        -2.135923        -0.092151
 C         2.118083        -0.881859        -0.944801
 O         1.965520        -0.590531        -2.288282
 H        -0.534424         0.228767         1.256026
 H        -0.619996         0.359778        -0.618367
 H        -0.622681        -1.216692         0.137962
 H         1.550558         1.861941        -0.582449
 H         1.605645         1.740381         1.230163
 H         4.358493        -0.934510        -0.098583
 H         2.316960        -0.927456         2.065623
 H         3.019226        -2.848368        -0.247688
 H         1.163344        -2.793628         0.004117
 H         1.499498        -1.396867        -2.613047
