19
Iteration:   372charge 0 multiplicity 1
 C        -0.101427         0.197368         0.139725
 C         1.368160         0.064164         0.125615
 C         2.189830         1.334002         0.391231
 O         3.465548         0.869541         0.190372
 C         3.384059        -0.510983        -0.033584
 C         2.349600        -1.088544         0.916096
 C         1.770071        -2.208853        -0.020485
 C         2.039883        -0.926448        -0.879068
 O         1.947542        -0.844872        -2.340444
 H        -0.386066         0.334962         1.197840
 H        -0.434586         1.100966        -0.508880
 H        -0.650995        -0.649936        -0.197107
 H         1.987948         2.200648        -0.293240
 H         1.998936         1.623203         1.422027
 H         4.433529        -0.923802        -0.253302
 H         2.437819        -1.111647         1.986427
 H         2.364925        -3.134144        -0.157762
 H         0.685854        -2.399377         0.111970
 H         1.013966        -0.626845        -2.506371
