19
Iteration:  3878charge 0 multiplicity 1
 C        -0.135589        -0.489031         0.177038
 C         1.368063        -0.087978         0.264792
 C         2.008425         1.290253         0.470644
 O         3.413903         0.961682         0.289523
 C         3.357207        -0.444576        -0.003110
 C         2.337433        -1.057551         0.867929
 C         2.001883        -2.110131        -0.305294
 C         2.119789        -0.733525        -0.921074
 O         1.854739        -0.481712        -2.336673
 H        -0.656851         0.521469         0.329298
 H        -0.357758        -0.525712        -0.905961
 H        -0.327409        -1.379188         0.790912
 H         1.754049         1.980368        -0.259631
 H         1.816455         1.748121         1.497644
 H         4.421003        -1.003602         0.022009
 H         2.450785        -1.305482         1.891841
 H         2.842115        -2.855959        -0.567260
 H         1.125719        -2.613076        -0.025534
 H         1.996457         0.497489        -2.549595
