19
Iteration:  4275
 C        -0.222346        -0.184073         0.491818
 C         1.271260        -0.099268         0.212548
 C         1.873552         1.236537         0.255677
 O         3.314253         1.016542         0.144522
 C         3.305781        -0.350114        -0.014657
 C         2.293017        -1.111304         0.863649
 C         2.120585        -2.223920        -0.220855
 C         2.173720        -0.783792        -0.934303
 O         2.163839        -0.693870        -2.325225
 H        -0.346027         0.888099         1.130888
 H        -0.735981        -0.102070        -0.480830
 H        -0.545846        -0.934975         1.218216
 H         1.541774         1.933080        -0.543331
 H         1.561550         1.734033         1.136773
 H         4.276247        -0.734193        -0.169895
 H         2.420368        -1.201949         2.044281
 H         2.907885        -2.916224        -0.354175
 H         1.143914        -2.764874        -0.288938
 H         2.395431         0.270860        -2.576092
