19
Iteration:    56
 C        -0.149027         0.115540         0.137286
 C         1.373046         0.022663         0.167772
 C         2.197472         1.251549         0.316382
 O         3.588736         0.840636         0.145146
 C         3.351505        -0.588967        -0.091262
 C         2.152765        -1.046281         0.924668
 C         1.868553        -2.214046         0.048799
 C         2.131465        -0.910838        -0.925510
 O         1.878778        -0.620408        -2.262614
 H        -0.502424         0.840779         0.889341
 H        -0.708535         0.298818        -0.822988
 H        -0.463108        -0.913865         0.435136
 H         1.971219         1.878308        -0.440087
 H         2.043858         1.795714         1.244002
 H         4.311587        -1.155747        -0.080829
 H         2.330791        -1.103940         1.949807
 H         2.588668        -3.002388         0.034515
 H         0.840087        -2.520040         0.077627
 H         1.061819        -0.054154        -2.270840
