19
Iteration:  2856charge 0 multiplicity 1
 C        -0.128669        -0.342070         0.254614
 C         1.314428         0.012864         0.189154
 C         1.963758         1.354824         0.396797
 O         3.355425         0.974040         0.118477
 C         3.371080        -0.371193        -0.023136
 C         2.281218        -0.978663         0.906272
 C         1.958904        -2.255772        -0.014801
 C         2.221260        -0.843003        -1.013758
 O         1.978315        -0.647250        -2.346966
 H        -0.587617         0.240758         1.155177
 H        -0.772127         0.063971        -0.473409
 H        -0.394094        -1.411087         0.438536
 H         1.610642         2.072994        -0.354976
 H         1.888480         1.815595         1.333081
 H         4.386535        -0.901019        -0.165741
 H         2.258297        -1.017599         2.055205
 H         2.827672        -2.991441        -0.084068
 H         0.874761        -2.561549         0.230566
 H         2.835175        -0.311470        -2.750676
