19
Iteration:  4467charge 0 multiplicity 1
 C        -0.138912        -0.335411         0.482154
 C         1.331013         0.000027         0.184283
 C         1.922826         1.374813         0.204877
 O         3.342946         1.044046         0.038546
 C         3.327111        -0.361758         0.019268
 C         2.229154        -1.003188         0.934825
 C         1.971061        -2.154925        -0.098569
 C         2.152562        -0.848574        -0.922341
 O         2.182522        -0.802727        -2.343954
 H        -0.879243        -0.874788        -0.239709
 H        -0.058626        -1.011507         1.341795
 H        -0.720965         0.603208         0.580205
 H         1.506279         1.951780        -0.643611
 H         1.631638         1.785325         1.129448
 H         4.155773        -0.957796        -0.213216
 H         2.186259        -0.985391         2.037539
 H         2.652322        -2.949579        -0.175074
 H         0.962324        -2.306324         0.009320
 H         2.678867        -0.019107        -2.525109
