19
Iteration:  2289charge 0 multiplicity 1
 C        -0.237667        -0.158787         0.311017
 C         1.318818         0.042034         0.236011
 C         2.033252         1.328093         0.339436
 O         3.400796         1.064504         0.260396
 C         3.364353        -0.347596         0.014629
 C         2.264775        -1.037855         0.884312
 C         2.068517        -2.188924        -0.161370
 C         2.125963        -0.855137        -0.937621
 O         1.971447        -0.945366        -2.423120
 H        -0.532286        -0.191321         1.400955
 H        -0.902726         0.576424        -0.161298
 H        -0.499819        -1.030218        -0.251009
 H         1.913728         2.120684        -0.461743
 H         1.790168         1.892289         1.210048
 H         4.329641        -0.612120        -0.230339
 H         2.500149        -1.310309         1.972859
 H         2.993698        -2.829260        -0.160146
 H         1.091718        -2.771479        -0.090592
 H         2.156193         0.009714        -2.784950
