19
Iteration:  2528charge 0 multiplicity 1
 C        -0.187250        -0.350495         0.302595
 C         1.264477        -0.006358         0.139913
 C         1.952689         1.405278         0.215678
 O         3.398435         0.966985         0.151477
 C         3.381194        -0.454752         0.008403
 C         2.265285        -1.032000         0.981952
 C         2.002336        -2.127509        -0.061351
 C         2.160654        -0.801563        -0.959252
 O         1.993612        -0.651092        -2.299843
 H        -0.304190        -0.280654         1.453261
 H        -0.807531         0.384985        -0.126608
 H        -0.510436        -1.311833         0.067096
 H         1.869301         1.974128        -0.669246
 H         1.800315         1.989873         1.161448
 H         4.326272        -0.879899         0.014232
 H         2.530581        -1.107313         2.028391
 H         2.778996        -2.815486        -0.287795
 H         1.086068        -2.667679        -0.102357
 H         2.931962        -0.776676        -2.625756
