19
Iteration:  1386
 C        -0.244147        -0.013177         0.298485
 C         1.348870        -0.002282         0.255417
 C         2.079892         1.382760         0.294821
 O         3.486840         0.930957         0.188618
 C         3.364481        -0.432494        -0.057799
 C         2.312474        -1.093492         0.880211
 C         1.906028        -2.157891        -0.169322
 C         2.173419        -0.834924        -0.886339
 O         1.924694        -0.891016        -2.257781
 H        -0.812689         0.078591         1.329934
 H        -0.599635         0.823662        -0.258329
 H        -0.544707        -0.811941        -0.442236
 H         1.730561         1.951580        -0.621405
 H         1.812362         1.884384         1.253449
 H         4.343775        -0.937753        -0.127523
 H         2.353434        -1.245201         1.967774
 H         2.561461        -2.857611        -0.633967
 H         0.902814        -2.469175         0.048357
 H         2.433590        -0.099461        -2.712094
