19
Iteration:  2716
 C        -0.273997        -0.104484         0.462271
 C         1.230865        -0.098829         0.113377
 C         1.895488         1.231542         0.354404
 O         3.298141         1.032841         0.079627
 C         3.256174        -0.399259        -0.037193
 C         2.386234        -1.071172         0.931674
 C         2.042158        -2.197832        -0.101420
 C         2.242620        -0.831250        -0.984277
 O         2.290508        -0.706932        -2.343717
 H        -0.327548         0.170722         1.568351
 H        -0.892593         0.598073        -0.087762
 H        -0.680486        -1.195172         0.395827
 H         1.560640         1.928518        -0.510672
 H         1.657465         1.934040         1.279260
 H         4.317811        -0.785668        -0.077203
 H         2.382003        -1.127604         2.033508
 H         2.840186        -2.929896        -0.278685
 H         1.025301        -2.482487        -0.074836
 H         1.410961        -0.522171        -2.819660
