19
Iteration:  3701charge 0 multiplicity 1
 C        -0.150369        -0.137977         0.250563
 C         1.317208        -0.151278         0.227812
 C         1.876050         1.209328         0.438746
 O         3.339967         1.079884         0.163294
 C         3.385477        -0.425113        -0.009226
 C         2.324409        -1.150952         0.901716
 C         2.204679        -2.229781        -0.252622
 C         2.142165        -0.830163        -0.938679
 O         1.893108        -0.587490        -2.265484
 H        -0.604137        -1.034141        -0.163155
 H        -0.559786         0.183584         1.079680
 H        -0.425549         0.710114        -0.375292
 H         1.597646         1.877355        -0.446892
 H         1.678912         1.578101         1.462740
 H         4.362901        -0.762918        -0.076454
 H         2.366458        -1.158285         2.039185
 H         3.030730        -2.880323        -0.343438
 H         1.272710        -2.884615        -0.362367
 H         2.403907         0.232114        -2.519580
