19
Iteration:  4542
 C        -0.153395        -0.174217         0.129095
 C         1.359700        -0.123818         0.124095
 C         1.894617         1.328587         0.227094
 O         3.362192         1.032180         0.098768
 C         3.374515        -0.295337         0.040757
 C         2.378495        -0.996810         1.004231
 C         2.217092        -2.201780        -0.034471
 C         2.193587        -0.890078        -0.849855
 O         1.763280        -0.725741        -2.168844
 H        -0.634697         0.761894        -0.501213
 H        -0.482667        -0.924794        -0.640524
 H        -0.662772        -0.247840         1.114931
 H         1.503113         1.868400        -0.724244
 H         1.765089         1.935618         1.139849
 H         4.331951        -0.897895        -0.006860
 H         2.382524        -1.003450         2.062184
 H         3.102650        -2.904497        -0.175734
 H         1.231047        -2.755270        -0.002172
 H         2.329524        -1.338833        -2.751270
