19
Iteration:   970
 C        -0.089143         0.063465         0.572801
 C         1.319539         0.006747         0.162468
 C         1.993422         1.311495         0.410279
 O         3.391208         0.914800         0.173442
 C         3.300483        -0.535097        -0.079324
 C         2.179857        -1.077219         0.889191
 C         1.799120        -2.134142        -0.221808
 C         2.169299        -0.845692        -1.003799
 O         2.184255        -0.835215        -2.448918
 H        -0.777914         0.514161        -0.269487
 H        -0.483681        -0.863090         0.714365
 H        -0.252261         0.681861         1.512046
 H         1.710753         2.174204        -0.250274
 H         1.808788         1.504745         1.499975
 H         4.313133        -0.826238        -0.061158
 H         2.447520        -1.301161         1.896878
 H         2.495119        -2.972023        -0.371675
 H         0.736753        -2.359788        -0.242859
 H         2.779421        -0.162538        -2.711367
