19
Iteration:  3141
 C        -0.302913        -0.038413         0.207902
 C         1.323569        -0.146941         0.161806
 C         1.875880         1.216820         0.350655
 O         3.280087         1.029282         0.104082
 C         3.386895        -0.421551         0.001585
 C         2.386594        -1.055992         0.962861
 C         2.225606        -2.234138        -0.081441
 C         2.191387        -0.842227        -0.895399
 O         1.954418        -0.722489        -2.279412
 H        -0.636827         0.335626         1.267979
 H        -0.482647         0.845427        -0.400702
 H        -0.889296        -0.984313        -0.264735
 H         1.550711         1.966758        -0.543814
 H         1.720611         1.706819         1.312405
 H         4.393686        -0.729673        -0.144825
 H         2.613679        -0.982271         1.994327
 H         3.117787        -2.952959        -0.359838
 H         1.287687        -2.761551        -0.010998
 H         2.575869         0.057560        -2.462776
