19
Iteration:  4123
 C        -0.189491        -0.373062         0.527638
 C         1.256624        -0.070588         0.182483
 C         1.905043         1.334470         0.394628
 O         3.307621         1.001084         0.114778
 C         3.357454        -0.415509        -0.003448
 C         2.235383        -1.019986         0.876682
 C         1.957133        -2.084023        -0.266472
 C         2.217629        -0.799881        -1.006043
 O         2.217091        -0.679982        -2.380313
 H        -0.735235        -0.957713        -0.227485
 H        -0.118881        -0.954291         1.434371
 H        -0.617813         0.513217         1.011762
 H         1.700426         2.054002        -0.448406
 H         1.658613         1.853352         1.411118
 H         4.229736        -0.984293        -0.066043
 H         2.382960        -1.212585         2.025708
 H         2.723846        -2.827097        -0.374229
 H         0.904580        -2.529024        -0.400742
 H         2.654260         0.200224        -2.517385
