19
Iteration:  2411
 C        -0.086849        -0.221573         0.387228
 C         1.323526        -0.032114         0.195639
 C         1.874805         1.333990         0.304435
 O         3.404101         1.039551         0.203500
 C         3.389245        -0.440699         0.002071
 C         2.240331        -1.021578         0.934710
 C         1.953844        -2.079265        -0.205978
 C         2.184755        -0.836473        -0.948135
 O         2.052058        -0.827517        -2.372655
 H        -0.512104         0.475426         1.009431
 H        -0.565912        -0.318911        -0.622890
 H        -0.417279        -1.063564         1.014620
 H         1.622330         2.001058        -0.548516
 H         1.607880         1.554639         1.282646
 H         4.400069        -0.709528        -0.086787
 H         2.203227        -1.112496         1.997076
 H         2.677962        -2.994587        -0.332064
 H         0.955064        -2.403751        -0.038662
 H         2.232534        -0.100652        -2.933061
