19
Iteration:   593
 C        -0.114036         0.070387         0.310231
 C         1.391329        -0.027623         0.199091
 C         2.097800         1.284168         0.165500
 O         3.441375         0.854841         0.153538
 C         3.352838        -0.556469        -0.062058
 C         2.250414        -1.045036         0.956526
 C         1.832349        -2.185936        -0.046926
 C         2.143980        -0.905557        -0.928188
 O         1.896315        -0.650365        -2.253069
 H        -0.341537         0.416317         1.304666
 H        -0.634138         0.778902        -0.416734
 H        -0.540256        -0.906697         0.147858
 H         2.020830         1.913054        -0.704822
 H         1.980733         1.901862         1.024332
 H         4.390839        -0.998709        -0.084537
 H         2.274860        -1.133066         2.028637
 H         2.520996        -3.041615        -0.007992
 H         0.768029        -2.440765        -0.101470
 H         2.750029        -0.227163        -2.650139
