19
Iteration:  3938
 C        -0.207292        -0.117925         0.578882
 C         1.295158        -0.186420         0.278055
 C         1.847811         1.200777         0.459166
 O         3.229649         1.001080         0.206431
 C         3.297402        -0.393584        -0.121445
 C         2.295094        -1.221801         0.900713
 C         2.161322        -2.188905        -0.383675
 C         2.163894        -0.756732        -1.008236
 O         2.214605        -0.530401        -2.399711
 H        -0.472424         0.550778         1.312336
 H        -0.620407         0.137920        -0.408757
 H        -0.874290        -0.906210         0.935136
 H         1.433768         2.026927        -0.389702
 H         1.669464         1.591965         1.428252
 H         4.206597        -0.790029        -0.421979
 H         2.466538        -1.832961         1.862336
 H         3.061707        -2.802095        -0.510916
 H         1.063436        -2.652585        -0.373500
 H         2.771385         0.270088        -2.707523
