19
Iteration:  3811charge 0 multiplicity 1
 C        -0.251483        -0.115043         0.331258
 C         1.259174        -0.103335         0.227742
 C         1.912088         1.241759         0.512349
 O         3.313128         1.017733         0.241298
 C         3.346763        -0.419865        -0.051114
 C         2.354926        -1.231899         0.845016
 C         2.200755        -2.226164        -0.284679
 C         2.154026        -0.769230        -0.964497
 O         2.009328        -0.582878        -2.375763
 H        -0.456307         0.675902         1.119006
 H        -0.894369         0.247467        -0.539928
 H        -0.588820        -1.136814         0.656990
 H         1.597801         2.110042        -0.201826
 H         1.828233         1.540195         1.623909
 H         4.414171        -0.699319        -0.333744
 H         2.529980        -1.499806         1.919709
 H         3.038744        -2.852066        -0.564316
 H         1.395012        -2.960293        -0.154269
 H         2.310680         0.250833        -2.692164
