19
Iteration:  2332
 C        -0.180744        -0.164153         0.214276
 C         1.319160        -0.106549         0.161085
 C         1.932114         1.297622         0.291854
 O         3.407868         1.043468         0.016950
 C         3.426936        -0.388752         0.033869
 C         2.373733        -1.106392         1.010936
 C         1.985365        -2.190488        -0.074983
 C         2.144885        -0.939698        -0.887765
 O         1.939463        -0.623876        -2.242277
 H        -0.685408         0.270908         1.123782
 H        -0.721819         0.248559        -0.599049
 H        -0.348054        -1.184886         0.089251
 H         1.476452         2.012043        -0.402048
 H         1.735935         1.759097         1.265655
 H         4.425820        -0.716003        -0.058525
 H         2.229350        -1.144146         2.129925
 H         2.761606        -2.967107        -0.246716
 H         0.968439        -2.679641        -0.110165
 H         2.637670         0.017307        -2.503634
