19
Iteration:  2914
 C        -0.198595        -0.042789         0.447874
 C         1.319371        -0.116848         0.287066
 C         1.834312         1.258948         0.235651
 O         3.291033         1.058124         0.106376
 C         3.309447        -0.408579         0.029628
 C         2.263514        -1.099226         0.991912
 C         2.099729        -2.196695        -0.188736
 C         2.295599        -0.949370        -0.961507
 O         2.141929        -0.699787        -2.427931
 H        -0.395227         0.324744         1.527179
 H        -0.637762         0.767946        -0.210346
 H        -0.940091        -0.937364         0.322993
 H         1.500530         1.902919        -0.600887
 H         1.736438         1.711923         1.108013
 H         4.298099        -0.738133        -0.130230
 H         2.290878        -1.434105         1.963617
 H         2.891730        -3.031930        -0.195783
 H         1.219115        -2.756019        -0.228593
 H         2.087327         0.255939        -2.443634
