19
Iteration:  3718charge 0 multiplicity 1
 C        -0.191613        -0.163038         0.297251
 C         1.305970        -0.198091         0.244863
 C         1.950350         1.301205         0.333028
 O         3.326694         1.011313         0.180762
 C         3.302879        -0.349861        -0.019817
 C         2.285814        -1.211633         0.932205
 C         2.183305        -2.250366        -0.176953
 C         2.173176        -0.847996        -0.959222
 O         1.984494        -0.502385        -2.343453
 H        -0.685598        -1.106706         0.632520
 H        -0.621699         0.471108         1.319380
 H        -0.782046         0.221677        -0.595512
 H         1.503721         1.957253        -0.377008
 H         1.805799         1.741771         1.354019
 H         4.360567        -0.723043        -0.269933
 H         2.443602        -1.582356         1.915901
 H         3.140057        -2.837562        -0.464130
 H         1.321137        -2.876769        -0.171729
 H         2.467667         0.378949        -2.482506
