19
Iteration:  3192
 C        -0.211138        -0.416345         0.247706
 C         1.354084        -0.067140         0.213113
 C         1.970840         1.343345         0.238742
 O         3.407020         1.009715         0.112762
 C         3.358859        -0.369651         0.070831
 C         2.285108        -0.981808         0.979958
 C         1.989904        -2.082518        -0.207490
 C         2.217918        -0.818148        -0.912755
 O         1.927140        -0.676222        -2.243521
 H        -0.583004        -0.003097         1.114822
 H        -0.741362        -0.004828        -0.628969
 H        -0.345562        -1.424249         0.250356
 H         1.752655         1.954765        -0.554557
 H         1.871881         1.740800         1.278145
 H         4.382894        -0.695730         0.045058
 H         2.400450        -1.435101         2.035534
 H         2.647077        -2.913990        -0.234810
 H         1.015947        -2.412187        -0.091647
 H         2.715541        -0.280009        -2.606581
