19
Iteration:  2155charge 0 multiplicity 1
 C        -0.134246        -0.134787         0.194718
 C         1.353232        -0.051435         0.216984
 C         1.956114         1.353099         0.221126
 O         3.344319         0.947785         0.284272
 C         3.330562        -0.409264        -0.093064
 C         2.364935        -1.132713         0.948843
 C         2.098406        -2.166601        -0.143497
 C         2.122846        -0.798585        -0.902959
 O         1.909006        -0.644480        -2.234475
 H        -0.539728         0.732137         0.911273
 H        -0.586831        -0.030539        -0.771817
 H        -0.534652        -1.008947         0.708961
 H         1.428352         2.016171        -0.581485
 H         1.762190         1.744506         1.237435
 H         4.402212        -0.803471        -0.341081
 H         2.529435        -1.239040         2.030612
 H         2.989150        -2.823531        -0.345718
 H         1.135148        -2.754620        -0.187389
 H         2.309693        -1.446475        -2.679774
