19
Iteration:  3213charge 0 multiplicity 1
 C        -0.191563        -0.293819         0.357949
 C         1.328528        -0.092053         0.140666
 C         1.950113         1.338185         0.272631
 O         3.383777         1.052924         0.180052
 C         3.316904        -0.409087        -0.037444
 C         2.279359        -1.064478         0.913002
 C         2.023605        -2.200225        -0.086564
 C         2.151869        -0.804296        -0.932666
 O         2.031416        -0.670426        -2.327584
 H        -0.504160         0.360683         1.086374
 H        -0.841658        -0.141655        -0.533389
 H        -0.269417        -1.233120         0.645867
 H         1.610718         1.922983        -0.545647
 H         1.742600         1.855662         1.361370
 H         4.375167        -0.706213        -0.113703
 H         2.176389        -1.066187         2.084371
 H         2.909027        -2.769591        -0.238506
 H         1.061777        -2.751404        -0.194443
 H         2.841978        -0.131769        -2.648523
