19
Iteration:  3211
 C        -0.178234        -0.311671         0.349197
 C         1.307246        -0.089379         0.130459
 C         1.950070         1.333928         0.275812
 O         3.409119         1.068904         0.171461
 C         3.338283        -0.407119        -0.025098
 C         2.270118        -1.080260         0.917591
 C         2.021249        -2.186593        -0.081573
 C         2.153310        -0.800082        -0.913844
 O         2.022294        -0.669009        -2.320845
 H        -0.589713         0.341949         1.120430
 H        -0.850165        -0.125822        -0.548543
 H        -0.281078        -1.339108         0.628048
 H         1.572689         1.994703        -0.568202
 H         1.714467         1.899015         1.337727
 H         4.425558        -0.790057        -0.143015
 H         2.160018        -1.027115         2.039555
 H         2.884380        -2.806676        -0.286526
 H         0.968206        -2.739844        -0.255810
 H         2.802132        -0.160242        -2.688037
