19
Iteration:  3452charge 0 multiplicity 1
 C        -0.201561        -0.196816         0.358580
 C         1.281292        -0.055972         0.229868
 C         1.929543         1.345278         0.294529
 O         3.353347         1.007111         0.170300
 C         3.322834        -0.422621        -0.069476
 C         2.270739        -1.030800         0.950386
 C         2.112764        -2.182977        -0.059616
 C         2.201056        -0.885322        -0.958671
 O         2.077125        -0.746796        -2.391672
 H        -0.601863        -0.717321         1.177603
 H        -0.685005         0.819664         0.193960
 H        -0.667770        -0.701454        -0.412969
 H         1.563174         1.894586        -0.691203
 H         1.727820         2.043217         1.294731
 H         4.294914        -0.767425        -0.139944
 H         2.516484        -1.086336         2.049348
 H         2.967191        -2.819628        -0.107279
 H         1.208464        -2.784946        -0.219854
 H         1.847097         0.248069        -2.474946
