19
Iteration:  1099charge 0 multiplicity 1
 C        -0.161017         0.078863         0.203739
 C         1.354444         0.000887         0.155411
 C         2.136392         1.299795         0.415583
 O         3.497568         0.877418         0.254624
 C         3.352699        -0.469229         0.021937
 C         2.247772        -1.116418         0.890563
 C         1.962556        -2.195186        -0.164442
 C         2.166481        -0.861123        -0.972116
 O         1.804871        -0.669120        -2.345021
 H        -0.617325         0.311550        -0.786150
 H        -0.657207        -0.710828         0.639528
 H        -0.432217         0.909145         0.960473
 H         1.943155         2.194983        -0.135433
 H         2.070483         1.545825         1.505260
 H         4.370946        -0.834499        -0.018986
 H         2.174942        -1.244192         1.959774
 H         2.765846        -2.864777        -0.349582
 H         1.052278        -2.759916        -0.059632
 H         1.831991        -1.580975        -2.802063
