19
Iteration:  4537charge 0 multiplicity 1
 C        -0.147810        -0.118462         0.119922
 C         1.340686        -0.100875         0.144279
 C         1.874780         1.296697         0.206908
 O         3.339682         1.056614         0.092507
 C         3.348335        -0.360106         0.037710
 C         2.386137        -1.001167         0.983024
 C         2.242091        -2.243859        -0.044604
 C         2.163666        -0.891781        -0.864553
 O         1.802864        -0.722353        -2.160885
 H        -0.631577         0.625624        -0.321602
 H        -0.306024        -1.052466        -0.422414
 H        -0.607219        -0.058561         1.096941
 H         1.587621         1.871902        -0.631145
 H         1.768347         1.887105         1.142075
 H         4.402816        -0.756452        -0.016962
 H         2.356903        -1.010300         2.123964
 H         3.173829        -2.811292        -0.073143
 H         1.220397        -2.654456         0.056159
 H         2.305628        -1.201742        -2.771690
