19
Iteration:  1282charge 0 multiplicity 1
 C        -0.192744        -0.044500         0.216868
 C         1.331393        -0.061123         0.198839
 C         2.133145         1.373187         0.280416
 O         3.491052         0.896924         0.199837
 C         3.373630        -0.513772        -0.055205
 C         2.314982        -1.050318         0.945483
 C         1.930666        -2.122013        -0.116512
 C         2.119214        -0.843010        -0.899519
 O         1.893539        -0.686988        -2.274803
 H        -0.471983         0.457425         1.069810
 H        -0.391577         0.567507        -0.756772
 H        -0.690267        -1.007517         0.264465
 H         1.692837         2.129247        -0.420618
 H         1.942479         1.759553         1.287042
 H         4.359420        -0.896746        -0.126833
 H         2.343759        -1.102834         2.024864
 H         2.463674        -3.078451        -0.297162
 H         0.875577        -2.392825         0.020574
 H         1.659335        -1.505339        -2.631830
