19
Iteration:  1252charge 0 multiplicity 1
 C        -0.104263         0.058524         0.088243
 C         1.425791        -0.020337         0.116547
 C         2.153764         1.338330         0.370855
 O         3.496131         0.919432         0.267072
 C         3.388749        -0.486118         0.026673
 C         2.226391        -1.067262         0.937974
 C         2.078932        -2.202715        -0.087013
 C         2.110345        -0.867167        -0.951154
 O         1.598438        -0.741141        -2.308889
 H        -0.488282         1.027374         0.602167
 H        -0.420471         0.104367        -0.975850
 H        -0.576315        -0.776441         0.778128
 H         1.721710         2.259805        -0.129666
 H         1.966502         1.564393         1.439587
 H         4.436302        -0.971913         0.120824
 H         2.231654        -1.150820         2.039591
 H         2.905919        -2.851175        -0.199810
 H         1.126018        -2.730851         0.021462
 H         2.273342        -1.218810        -2.975856
