19
Iteration:   337charge 0 multiplicity 1
 C        -0.170110         0.179739         0.283754
 C         1.358379         0.000695         0.276903
 C         2.208051         1.242540         0.129822
 O         3.505742         0.772531         0.130243
 C         3.330906        -0.536567         0.045344
 C         2.186232        -1.045840         1.020978
 C         1.877427        -2.144208        -0.091920
 C         2.074047        -0.858054        -0.883046
 O         1.994319        -0.647888        -2.334224
 H        -0.486683         0.353703         1.347320
 H        -0.483685         1.082554        -0.210677
 H        -0.789825        -0.698253        -0.143953
 H         2.017551         1.685902        -0.820645
 H         2.148763         1.961416         0.883835
 H         4.134056        -1.109492        -0.148056
 H         2.190798        -1.257939         2.054561
 H         2.644350        -3.021505        -0.166171
 H         0.857937        -2.581152        -0.146469
 H         1.449137        -1.321193        -2.688104
