19
Iteration:  1571charge 0 multiplicity 1
 C        -0.128100        -0.022800         0.173299
 C         1.364545        -0.093945         0.200532
 C         2.025265         1.251962         0.326521
 O         3.381993         1.002065         0.125472
 C         3.374271        -0.456192        -0.041711
 C         2.306585        -1.057364         0.977592
 C         1.978819        -2.216373        -0.080139
 C         2.142484        -0.909924        -0.869113
 O         1.876350        -0.653489        -2.269145
 H        -0.520759         0.410266         1.161408
 H        -0.516871         0.583325        -0.693839
 H        -0.592029        -1.052779        -0.090353
 H         1.622949         2.013697        -0.423696
 H         1.809800         1.750410         1.334290
 H         4.352243        -0.816096        -0.247132
 H         2.463744        -1.136158         2.033016
 H         2.795466        -2.945407        -0.215616
 H         1.012510        -2.662619         0.130145
 H         2.721675        -0.518642        -2.853618
