19
Iteration:  2218
 C        -0.250548        -0.203505         0.333430
 C         1.310315        -0.065779         0.301092
 C         1.958349         1.272310         0.220758
 O         3.366883         0.938518         0.040642
 C         3.326009        -0.474948        -0.047283
 C         2.325977        -0.969090         0.976080
 C         1.981689        -2.159647        -0.162256
 C         2.107657        -0.814835        -0.886559
 O         2.109929        -0.646264        -2.231736
 H        -0.711553         0.188115         1.227319
 H        -0.734832         0.077622        -0.598867
 H        -0.414719        -1.308600         0.222928
 H         1.537467         1.966336        -0.480299
 H         2.038872         1.953451         1.104136
 H         4.364035        -0.915518        -0.202926
 H         2.580498        -1.121068         1.964041
 H         2.782811        -2.843625        -0.414946
 H         1.047898        -2.634740        -0.192512
 H         2.817916         0.095796        -2.316847
