19
Iteration:  2760charge 0 multiplicity 1
 C        -0.236360        -0.300588         0.296363
 C         1.273637        -0.044857         0.180140
 C         1.994265         1.354843         0.274131
 O         3.374837         1.017758         0.104295
 C         3.356507        -0.368701         0.006270
 C         2.287494        -1.086381         0.964472
 C         2.004226        -2.113960        -0.116555
 C         2.204879        -0.810618        -0.900455
 O         2.126093        -0.667016        -2.324503
 H        -0.666811        -0.133870         1.346586
 H        -0.969471         0.135643        -0.392018
 H        -0.476852        -1.440755         0.197921
 H         1.659889         2.203706        -0.419236
 H         1.889280         1.770699         1.411955
 H         4.423805        -0.730148        -0.136117
 H         2.560501        -1.261130         2.008408
 H         2.756142        -2.933040        -0.243457
 H         0.960829        -2.397781        -0.090771
 H         1.296362        -1.222943        -2.540961
