19
Iteration:  4504
 C        -0.235521        -0.161474         0.304664
 C         1.258347        -0.125872         0.248477
 C         1.851395         1.262894         0.216441
 O         3.379944         1.040427         0.044209
 C         3.308529        -0.362010        -0.028883
 C         2.372029        -1.009101         0.969294
 C         2.153409        -2.177374        -0.025397
 C         2.159676        -0.850217        -0.916391
 O         2.034176        -0.716569        -2.294763
 H        -0.620154         0.012415        -0.600058
 H        -0.577844        -1.088414         0.746132
 H        -0.565951         0.496012         1.094158
 H         1.565523         1.825166        -0.642471
 H         1.713055         1.937724         1.123730
 H         4.349615        -0.649785        -0.187607
 H         2.329494        -0.952334         2.118175
 H         2.820194        -3.092735        -0.057206
 H         1.096413        -2.583559         0.027053
 H         2.901279        -0.857103        -2.758606
