19
Iteration:  2061
 C        -0.240506        -0.189303         0.409019
 C         1.297871        -0.080421         0.310933
 C         1.899792         1.227883         0.190100
 O         3.332026         1.004525        -0.011801
 C         3.376733        -0.420219         0.005130
 C         2.287906        -1.123326         0.930260
 C         1.995868        -2.093464        -0.195341
 C         2.213833        -0.818117        -0.887986
 O         2.245694        -0.643914        -2.246688
 H        -0.386272        -0.219798         1.471443
 H        -0.997545         0.628646         0.076815
 H        -0.706701        -1.194255         0.010550
 H         1.496413         1.915172        -0.663633
 H         1.855566         2.013087         1.114314
 H         4.389402        -0.911646        -0.131414
 H         2.258439        -1.243067         2.150025
 H         2.643046        -2.929823        -0.268078
 H         0.927636        -2.451781        -0.141072
 H         1.368104        -0.262967        -2.557107
