19
Iteration:  2795
 C        -0.148445        -0.082493         0.172564
 C         1.309427        -0.080360         0.228665
 C         1.947241         1.263909         0.228058
 O         3.330533         1.062267         0.253185
 C         3.297339        -0.350220        -0.060908
 C         2.307293        -1.131383         0.966078
 C         2.217466        -2.286796        -0.072681
 C         2.200746        -0.879619        -0.905852
 O         1.884716        -0.605045        -2.278574
 H        -0.490351         0.430619         1.038018
 H        -0.405610         0.522746        -0.728290
 H        -0.489929        -1.155031         0.133934
 H         1.665618         1.914779        -0.637560
 H         1.699225         1.853917         1.286648
 H         4.343803        -0.590046        -0.120390
 H         2.584197        -1.327790         1.961731
 H         3.044007        -2.964796        -0.143317
 H         1.351060        -2.868595        -0.085682
 H         1.730018        -1.410027        -2.886343
