19
Iteration:  4345charge 0 multiplicity 1
 C        -0.161112        -0.315453         0.261969
 C         1.291748        -0.081074         0.200666
 C         1.930305         1.330045         0.306068
 O         3.370074         1.028880         0.121625
 C         3.419274        -0.356810         0.002630
 C         2.356798        -1.044749         0.918969
 C         1.989715        -2.172963        -0.059994
 C         2.160841        -0.764266        -0.901578
 O         1.931169        -0.693025        -2.312218
 H        -0.412192        -1.022655         1.198461
 H        -0.788393         0.529770        -0.098640
 H        -0.328853        -1.096326        -0.544964
 H         1.452096         2.068980        -0.383558
 H         1.855914         1.813561         1.316524
 H         4.487501        -0.748824        -0.105257
 H         2.599695        -1.135272         1.897007
 H         2.719738        -2.964324        -0.134375
 H         1.016074        -2.561061        -0.148351
 H         2.775382        -0.239996        -2.614923
