19
Iteration:  4059
 C        -0.188939        -0.131932         0.212672
 C         1.278975        -0.169192         0.191851
 C         1.926258         1.242901         0.452172
 O         3.353320         1.046572         0.197737
 C         3.324847        -0.377130         0.034845
 C         2.382546        -1.165366         0.912343
 C         2.249411        -2.210602        -0.251061
 C         2.105911        -0.815467        -0.922751
 O         1.895530        -0.607169        -2.311560
 H        -0.689982        -1.096548         0.344277
 H        -0.505681         0.442095         1.199933
 H        -0.670489         0.211091        -0.770322
 H         1.652614         1.880045        -0.313839
 H         1.750916         1.756609         1.368713
 H         4.348845        -0.579599        -0.242088
 H         2.466537        -1.489926         1.995828
 H         3.197558        -2.761268        -0.473250
 H         1.266387        -2.905700        -0.159900
 H         2.302294         0.183027        -2.610405
