19
Iteration:  1354
 C        -0.145337         0.035386         0.535618
 C         1.337504        -0.066934         0.125304
 C         2.034307         1.282955         0.195292
 O         3.433816         0.922914         0.074387
 C         3.293184        -0.477207         0.008318
 C         2.148561        -1.030162         0.927584
 C         1.893210        -2.200076        -0.055106
 C         2.118539        -0.917719        -0.960036
 O         2.204472        -0.709951        -2.381363
 H        -0.283339        -0.319639         1.676629
 H        -0.400981         1.081154         0.318040
 H        -0.862372        -0.610486        -0.090041
 H         1.750771         1.992506        -0.659575
 H         1.764801         1.746246         1.200694
 H         4.199266        -1.077936        -0.000207
 H         2.103343        -1.010087         2.029409
 H         2.684192        -2.962572        -0.283176
 H         0.924056        -2.699723         0.087025
 H         1.812578         0.079592        -2.624369
