19
Iteration:  2718
 C        -0.275013        -0.113522         0.467197
 C         1.244756        -0.097359         0.125786
 C         1.897494         1.245217         0.346378
 O         3.287460         1.017051         0.077387
 C         3.249510        -0.399446        -0.034956
 C         2.387389        -1.070405         0.940294
 C         2.034658        -2.178424        -0.101792
 C         2.229536        -0.821442        -0.978663
 O         2.296599        -0.711503        -2.352992
 H        -0.331698         0.130875         1.492360
 H        -0.858836         0.591909        -0.097931
 H        -0.599590        -1.203744         0.374884
 H         1.580211         1.947584        -0.441451
 H         1.673117         1.884902         1.244655
 H         4.300089        -0.800474        -0.110079
 H         2.405216        -1.156520         2.007389
 H         2.822015        -2.881179        -0.283896
 H         1.046862        -2.496628        -0.052147
 H         1.462807        -0.533006        -2.825612
