19
Iteration:  2468
 C        -0.158713        -0.063197         0.173367
 C         1.320489        -0.139234         0.213351
 C         1.950652         1.192486         0.318768
 O         3.310414         1.037790         0.086721
 C         3.331036        -0.403542         0.016506
 C         2.363634        -1.065584         1.008291
 C         2.108570        -2.140154        -0.119336
 C         2.109061        -0.889230        -0.861205
 O         1.969948        -0.747121        -2.295186
 H        -0.405784         0.208917         1.117930
 H        -0.604982         0.736263        -0.499104
 H        -0.533986        -1.116127        -0.080562
 H         1.617859         1.978743        -0.430384
 H         1.778053         1.776031         1.185369
 H         4.501838        -0.558312        -0.022178
 H         2.487292        -1.194268         2.096195
 H         2.928216        -2.831722        -0.511755
 H         1.092192        -2.555113         0.134083
 H         2.404916         0.146252        -2.574367
