19
Iteration:  3699
 C        -0.132911        -0.140507         0.227574
 C         1.314466        -0.153783         0.229166
 C         1.874229         1.206200         0.438401
 O         3.334770         1.062084         0.163605
 C         3.396247        -0.424927        -0.007010
 C         2.332733        -1.130081         0.900036
 C         2.197255        -2.205968        -0.252087
 C         2.147763        -0.828865        -0.945824
 O         1.885568        -0.602905        -2.250476
 H        -0.650325        -0.997076        -0.181784
 H        -0.661392         0.099272         1.141325
 H        -0.458763         0.765314        -0.340912
 H         1.597631         1.902038        -0.401688
 H         1.643595         1.568798         1.515585
 H         4.392705        -0.765433        -0.074910
 H         2.406730        -1.196264         2.018537
 H         2.993055        -2.839609        -0.411258
 H         1.291976        -2.829289        -0.352420
 H         2.411352         0.227590        -2.526904
