19
Iteration:  4083
 C        -0.235578        -0.254862         0.364271
 C         1.309597        -0.120986         0.285471
 C         1.882150         1.278186         0.457433
 O         3.332469         1.021494         0.183121
 C         3.320672        -0.395338        -0.095359
 C         2.328719        -1.059774         0.894899
 C         2.033112        -2.135690        -0.263782
 C         2.197743        -0.832511        -0.985668
 O         2.106002        -0.675374        -2.346713
 H        -0.787211        -1.111973        -0.046057
 H        -0.375995        -0.114453         1.508312
 H        -0.684333         0.620836        -0.182736
 H         1.425121         1.923667        -0.252512
 H         1.873115         1.731298         1.407799
 H         4.439699        -0.581511        -0.271536
 H         2.586662        -1.287956         1.888237
 H         2.969168        -2.769755        -0.339866
 H         1.050939        -2.716808        -0.281772
 H         2.502702         0.166306        -2.624983
