19
Iteration:  2294charge 0 multiplicity 1
 C        -0.235629        -0.172412         0.303172
 C         1.357857         0.054846         0.272170
 C         1.986702         1.406532         0.341467
 O         3.425705         1.032976         0.266295
 C         3.333915        -0.350712        -0.021139
 C         2.308770        -1.031011         0.908451
 C         2.039465        -2.199052        -0.162292
 C         2.115341        -0.885690        -0.968886
 O         1.970016        -0.922864        -2.409208
 H        -0.670772        -0.360554         1.276838
 H        -0.749616         0.641096        -0.321339
 H        -0.487530        -1.186728        -0.215509
 H         1.818818         1.978289        -0.589693
 H         1.722851         1.922360         1.322545
 H         4.430335        -0.692198        -0.234255
 H         2.483340        -1.134799         1.943801
 H         2.914528        -2.840541        -0.176518
 H         1.145609        -2.762069        -0.128373
 H         2.236661        -0.051842        -2.587654
