19
Iteration:  1832charge 0 multiplicity 1
 C        -0.282999        -0.047801         0.376555
 C         1.263791        -0.061159         0.238458
 C         1.989842         1.349257         0.400626
 O         3.370119         1.014511         0.086662
 C         3.358309        -0.426833        -0.085039
 C         2.241584        -1.077550         0.895568
 C         2.031725        -2.136163        -0.141496
 C         2.199854        -0.910674        -0.973143
 O         2.214901        -0.770769        -2.302885
 H        -0.699322         0.107918         1.339809
 H        -0.896767         0.662187        -0.322763
 H        -0.674864        -1.141504         0.085322
 H         1.632235         2.166590        -0.267015
 H         1.916845         1.734158         1.444386
 H         4.376277        -0.826346        -0.130457
 H         2.359889        -1.119392         2.051460
 H         2.739688        -2.970397        -0.444721
 H         0.966110        -2.552224        -0.175679
 H         1.362373        -1.079255        -2.586629
