19
Iteration:  4761charge 0 multiplicity 1
 C        -0.193335        -0.035988         0.203152
 C         1.320027        -0.061849         0.179639
 C         1.876030         1.331832         0.158800
 O         3.274357         1.117887        -0.001484
 C         3.376353        -0.357096         0.008906
 C         2.343696        -1.021534         1.046695
 C         2.196116        -2.190143         0.011830
 C         2.171527        -0.934334        -0.815425
 O         1.952235        -0.977226        -2.250640
 H        -0.633879        -0.976947         0.068996
 H        -0.555821         0.277678         1.173180
 H        -0.534274         0.674305        -0.560754
 H         1.462092         1.690669        -0.768831
 H         1.726128         2.073121         0.959680
 H         4.408213        -0.734481        -0.099441
 H         2.457971        -1.124430         2.183857
 H         3.229849        -2.804225        -0.021012
 H         1.263962        -2.774047         0.187657
 H         2.512169        -0.181883        -2.537670
