19
Iteration:  4077charge 0 multiplicity 1
 C        -0.278877        -0.199867         0.371523
 C         1.324223        -0.104684         0.286062
 C         1.899085         1.260543         0.409076
 O         3.299570         0.994026         0.191929
 C         3.356288        -0.382601        -0.079791
 C         2.349198        -1.113537         0.892545
 C         2.121400        -2.148940        -0.246629
 C         2.192783        -0.810897        -0.979442
 O         2.050300        -0.661189        -2.350832
 H        -0.521659        -1.192344        -0.077326
 H        -0.655365         0.130376         1.310296
 H        -0.615427         0.596616        -0.279562
 H         1.338500         2.052671        -0.258906
 H         1.803503         1.580227         1.530068
 H         4.341392        -0.790095        -0.167969
 H         2.566712        -1.275025         2.010074
 H         2.974368        -2.775663        -0.426304
 H         1.185996        -2.655464        -0.269199
 H         2.466720         0.149055        -2.593983
