19
Iteration:   981charge 0 multiplicity 1
 C        -0.159338         0.038149         0.604772
 C         1.284186        -0.020790         0.178699
 C         2.085151         1.290611         0.398660
 O         3.406641         0.895049         0.133709
 C         3.266092        -0.528378        -0.011306
 C         2.133955        -1.045933         0.840077
 C         1.881493        -2.116585        -0.235695
 C         2.154932        -0.845576        -1.058152
 O         2.203963        -0.789452        -2.405741
 H        -0.937149         0.320096        -0.227539
 H        -0.422587        -0.834152         1.078702
 H        -0.220398         0.850198         1.414319
 H         1.772364         2.090256        -0.331868
 H         1.966087         1.791592         1.411463
 H         4.043049        -1.214195        -0.217791
 H         1.980678        -1.182127         1.888884
 H         2.676133        -2.884660        -0.256638
 H         0.941583        -2.672553        -0.267353
 H         2.731139        -0.072014        -2.678422
