19
Iteration:  1594
 C        -0.172628        -0.147642         0.112304
 C         1.329082        -0.068087         0.194472
 C         2.060918         1.315152         0.219111
 O         3.489298         0.899688         0.123853
 C         3.335025        -0.459725         0.034994
 C         2.271012        -1.047544         0.981433
 C         2.101418        -2.232903        -0.019663
 C         2.115781        -0.827103        -0.858513
 O         1.806234        -0.528005        -2.237434
 H        -0.611818        -0.053732         1.211453
 H        -0.618792         0.694569        -0.443280
 H        -0.581822        -1.036319        -0.490905
 H         1.759996         2.114411        -0.581671
 H         1.982886         1.905923         1.203183
 H         4.253646        -0.931502        -0.089937
 H         2.310680        -1.136293         2.070439
 H         3.015373        -2.785083         0.101511
 H         1.214510        -2.836147        -0.172939
 H         2.110938        -1.114974        -2.878698
