19
Iteration:  4330charge 0 multiplicity 1
 C        -0.201199        -0.331312         0.354033
 C         1.355048        -0.090738         0.170727
 C         1.910714         1.309564         0.295342
 O         3.365102         1.086230         0.087544
 C         3.321125        -0.384018        -0.020211
 C         2.334416        -1.059932         0.959751
 C         2.022637        -2.168379        -0.130969
 C         2.167685        -0.886240        -0.936904
 O         2.038579        -0.628293        -2.289747
 H        -0.504210        -0.322872         1.371829
 H        -0.709449         0.595513         0.185895
 H        -0.538019        -1.197232        -0.185806
 H         1.645441         1.957912        -0.542070
 H         1.665272         1.728022         1.227333
 H         4.318235        -0.773848        -0.195974
 H         2.185289        -1.172211         2.097886
 H         2.760001        -2.920782        -0.371446
 H         0.982839        -2.511856         0.129651
 H         2.864741        -0.224479        -2.710649
