19
Iteration:  1383
 C        -0.251686         0.010262         0.326622
 C         1.353299         0.006104         0.274428
 C         2.057220         1.399658         0.276287
 O         3.459392         0.912056         0.177648
 C         3.361354        -0.442751        -0.054538
 C         2.307681        -1.101699         0.894312
 C         1.919149        -2.150258        -0.181852
 C         2.176100        -0.834426        -0.895105
 O         1.964167        -0.886025        -2.262273
 H        -0.650267        -0.012697         1.287873
 H        -0.636032         0.827552        -0.220045
 H        -0.551395        -0.756031        -0.429154
 H         1.747201         1.920472        -0.629938
 H         1.823476         1.849284         1.206498
 H         4.363899        -1.053963        -0.174711
 H         2.336735        -1.271352         1.997924
 H         2.556122        -2.903577        -0.593894
 H         0.898717        -2.439669         0.051294
 H         2.314954        -0.079650        -2.740515
