19
Iteration:  1122
 C        -0.125187         0.107544         0.372633
 C         1.345754        -0.087258         0.207256
 C         2.018688         1.258634         0.332412
 O         3.431397         0.949037         0.237832
 C         3.356583        -0.520805        -0.063963
 C         2.307531        -1.138799         0.876110
 C         1.822655        -2.141314        -0.184835
 C         2.107505        -0.816520        -0.934627
 O         2.084280        -0.705561        -2.359311
 H        -0.578955         0.841499        -0.394026
 H        -0.792653        -0.665152         0.437663
 H        -0.277847         0.538494         1.446236
 H         1.863756         1.887451        -0.517533
 H         1.863154         1.844116         1.267881
 H         4.406393        -0.924931        -0.104543
 H         2.460870        -1.295793         1.933198
 H         2.366220        -3.030363        -0.458527
 H         0.760402        -2.385803        -0.187936
 H         1.737353        -1.494736        -2.663040
