19
Iteration:  1961charge 0 multiplicity 1
 C        -0.182555        -0.193920         0.075599
 C         1.344513        -0.093633         0.204326
 C         1.988301         1.224797         0.463006
 O         3.411798         1.006757         0.131884
 C         3.398046        -0.404876        -0.072522
 C         2.371123        -0.974271         0.984431
 C         2.037004        -2.135806        -0.075211
 C         2.147376        -0.845214        -0.910403
 O         1.887556        -0.627237        -2.283603
 H        -0.721012         0.498096         0.818727
 H        -0.602470         0.002264        -0.957761
 H        -0.690916        -1.158289         0.177237
 H         1.502825         2.107178        -0.122506
 H         1.945079         1.545221         1.599803
 H         4.442536        -0.808229        -0.032089
 H         2.525476        -1.140599         2.123748
 H         2.637490        -2.978369        -0.395429
 H         0.964805        -2.380326         0.004011
 H         2.018005        -1.525846        -2.741838
