19
Iteration:  1828
 C        -0.279404        -0.051955         0.338082
 C         1.290773        -0.070627         0.256965
 C         1.980678         1.310239         0.412389
 O         3.371692         1.000768         0.089203
 C         3.323599        -0.388134        -0.106193
 C         2.281729        -1.073269         0.945318
 C         1.996385        -2.155063        -0.146020
 C         2.207333        -0.895323        -0.966236
 O         2.203712        -0.756631        -2.305820
 H        -0.611815         0.236817         1.411539
 H        -0.699302         0.611537        -0.406446
 H        -0.584270        -0.986251         0.000757
 H         1.586664         2.071458        -0.227152
 H         1.834640         1.817942         1.359316
 H         4.323796        -0.805288        -0.177449
 H         2.319526        -1.069610         1.985354
 H         2.670574        -2.891624        -0.469864
 H         1.059851        -2.646403        -0.109384
 H         1.347488        -1.205703        -2.638103
