19
Iteration:   411
 C        -0.195566         0.070652         0.240092
 C         1.354824         0.098415         0.166526
 C         2.276169         1.376746         0.364304
 O         3.542112         0.828862         0.065883
 C         3.307641        -0.553615         0.015938
 C         2.165478        -1.068155         0.963955
 C         1.853352        -2.166568        -0.123046
 C         2.047485        -0.857505        -0.927402
 O         1.903785        -0.823152        -2.257986
 H        -0.734930         0.582016         1.058034
 H        -0.620638         0.487879        -0.615709
 H        -0.397984        -1.074430         0.328096
 H         2.136901         2.206607        -0.345172
 H         2.302839         1.853680         1.421239
 H         4.249185        -1.005451        -0.056227
 H         2.279610        -1.184013         2.045892
 H         2.687214        -2.906440        -0.233693
 H         0.870922        -2.600173        -0.244143
 H         2.430965        -0.112553        -2.614466
