19
Iteration:  3762charge 0 multiplicity 1
 C        -0.134021        -0.433074         0.508708
 C         1.325054        -0.074926         0.210851
 C         1.930931         1.363711         0.392417
 O         3.330857         1.037069         0.170154
 C         3.324750        -0.401184        -0.038504
 C         2.270887        -1.208332         0.857965
 C         1.900525        -2.093803        -0.274670
 C         2.177005        -0.790772        -0.973798
 O         2.169114        -0.573977        -2.392027
 H        -0.429355        -0.725482         1.523802
 H        -0.767422         0.648376         0.506553
 H        -0.471927        -1.106996        -0.332676
 H         1.649790         2.055995        -0.334065
 H         1.732650         1.914074         1.318671
 H         4.387379        -0.737743        -0.051613
 H         2.214812        -1.553349         1.867572
 H         2.621555        -3.003968        -0.312875
 H         0.843320        -2.372207        -0.305883
 H         2.734775         0.283235        -2.455761
