19
Iteration:  3550charge 0 multiplicity 1
 C        -0.146439        -0.317314         0.361385
 C         1.377066        -0.059695         0.194329
 C         1.960684         1.339716         0.370480
 O         3.351201         1.008090         0.073627
 C         3.334141        -0.383721        -0.008307
 C         2.243590        -1.098569         0.908390
 C         2.020819        -2.129738        -0.138407
 C         2.164240        -0.812227        -0.950432
 O         2.017991        -0.653379        -2.303845
 H        -0.902074         0.360563         0.824482
 H        -0.627017        -0.561152        -0.707465
 H        -0.287147        -1.169423         0.979936
 H         1.640977         2.041686        -0.320398
 H         1.705639         1.874092         1.297809
 H         4.301338        -0.708196        -0.091952
 H         2.141999        -1.328138         2.007433
 H         2.887900        -2.765847        -0.132690
 H         1.009803        -2.558818        -0.278617
 H         2.825759        -0.169594        -2.671423
