19
Iteration:  3960
 C        -0.241067        -0.137853         0.545621
 C         1.266857        -0.114018         0.223938
 C         1.881388         1.185807         0.476142
 O         3.296482         1.035791         0.186751
 C         3.319306        -0.373987         0.016651
 C         2.302494        -1.160039         0.798058
 C         2.133384        -2.227670        -0.390759
 C         2.179689        -0.848083        -1.007099
 O         2.149136        -0.544815        -2.407718
 H        -0.371409        -0.100339         1.590133
 H        -0.922123         0.441816        -0.065375
 H        -0.611851        -1.172252         0.476836
 H         1.433939         2.010332        -0.240886
 H         1.820744         1.536375         1.469079
 H         4.256442        -0.744683        -0.200418
 H         2.435148        -1.263882         1.949380
 H         3.069271        -2.789044        -0.501384
 H         1.064289        -2.774733        -0.387280
 H         2.644805         0.262149        -2.437459
