19
Iteration:   205
 C        -0.094326         0.075736         0.067143
 C         1.406625        -0.009846         0.131113
 C         2.168710         1.255697         0.225490
 O         3.613156         0.850490         0.283225
 C         3.369979        -0.534812        -0.070662
 C         2.280694        -1.057827         0.915471
 C         1.803708        -2.191212         0.018570
 C         2.015971        -0.873911        -0.871746
 O         1.734908        -0.625085        -2.219516
 H        -0.467250         0.661405         0.903293
 H        -0.364292         0.621435        -0.774434
 H        -0.606017        -0.945414         0.114731
 H         2.061016         2.053262        -0.567989
 H         1.908751         1.721361         1.183365
 H         4.256924        -1.047053        -0.253281
 H         2.611146        -0.991562         1.962328
 H         2.592117        -2.998090         0.016673
 H         0.751142        -2.434071         0.263462
 H         2.321666        -1.067550        -2.768942
