19
Iteration:  3601
 C        -0.187397        -0.106092         0.459705
 C         1.298469        -0.151387         0.244871
 C         1.847270         1.252751         0.252358
 O         3.283756         1.004130         0.165878
 C         3.314076        -0.420119        -0.078933
 C         2.299647        -1.156481         0.925462
 C         2.136265        -2.237271        -0.194741
 C         2.156603        -0.836725        -0.933956
 O         2.136892        -0.575702        -2.316388
 H        -0.634681         0.740087        -0.114198
 H        -0.750856        -0.934686         0.072729
 H        -0.463125         0.010205         1.561699
 H         1.477819         1.922876        -0.655906
 H         1.678944         1.976297         1.061402
 H         4.307185        -0.844758        -0.343094
 H         2.527118        -1.387870         1.977983
 H         3.006655        -2.821942        -0.441502
 H         1.112722        -2.778136        -0.265542
 H         2.681147         0.271999        -2.464873
