19
Iteration:  4019charge 0 multiplicity 1
 C        -0.154459        -0.368751         0.090131
 C         1.397050        -0.144891         0.230039
 C         1.968116         1.284465         0.417584
 O         3.373235         1.013632         0.290218
 C         3.392167        -0.357452         0.025728
 C         2.438790        -1.172646         0.912363
 C         2.058252        -2.110426        -0.211483
 C         2.130032        -0.748106        -0.935553
 O         1.809403        -0.573348        -2.299604
 H        -0.694206        -0.890381         0.904446
 H        -0.665329         0.544938         0.445017
 H        -0.467765        -0.666759        -0.911479
 H         1.532157         1.954130        -0.529477
 H         1.802593         1.861876         1.382462
 H         4.394963        -0.860931        -0.260645
 H         2.561636        -1.353090         1.928087
 H         2.785206        -2.883638        -0.494292
 H         1.175132        -2.614982        -0.115402
 H         1.947028         0.427648        -2.460900
