19
Iteration:   379charge 0 multiplicity 1
 C        -0.114553         0.180467         0.162818
 C         1.352907         0.022446         0.128834
 C         2.204045         1.299686         0.419539
 O         3.518645         0.881697         0.145954
 C         3.346853        -0.527924        -0.026148
 C         2.279796        -1.109876         0.978209
 C         1.814896        -2.093223        -0.031501
 C         2.064124        -0.866096        -0.929296
 O         1.929527        -0.892686        -2.340189
 H        -0.522099         0.402330         1.176909
 H        -0.391947         0.899986        -0.535919
 H        -0.620558        -0.769832        -0.292642
 H         2.023953         2.126315        -0.214024
 H         2.105787         1.626674         1.463983
 H         4.312437        -0.836084        -0.136575
 H         2.440899        -1.158024         2.046906
 H         2.392551        -3.066300        -0.130439
 H         0.750146        -2.337414        -0.074202
 H         1.024201        -0.441145        -2.551175
