19
Iteration:  1520charge 0 multiplicity 1
 C        -0.165219        -0.117920         0.522077
 C         1.297737        -0.007363         0.108714
 C         2.009730         1.416353         0.344236
 O         3.436760         0.900337         0.122109
 C         3.262764        -0.466532        -0.025452
 C         2.141659        -0.998149         0.891782
 C         1.964459        -2.137668        -0.160123
 C         2.131491        -0.912978        -0.950791
 O         2.225323        -0.784322        -2.383544
 H        -0.586652         0.804432         1.034895
 H        -0.687759        -0.324428        -0.354478
 H        -0.480863        -0.943356         1.107610
 H         1.899548         2.140294        -0.449382
 H         1.875741         1.653893         1.398912
 H         4.210255        -0.935102         0.068740
 H         2.273595        -0.945710         1.983107
 H         2.783374        -2.835273        -0.315560
 H         0.945894        -2.489264        -0.302159
 H         1.526497        -0.149005        -2.685692
