19
Iteration:  1182
 C        -0.136030        -0.087964         0.457603
 C         1.279881        -0.020333         0.136085
 C         2.117166         1.294874         0.213058
 O         3.465648         0.874236        -0.001941
 C         3.340537        -0.604120        -0.005692
 C         2.181041        -1.051759         0.961938
 C         1.806480        -2.129157        -0.039257
 C         2.115906        -0.860192        -0.930274
 O         2.179052        -0.591298        -2.298654
 H        -0.530297         0.913207         0.505029
 H        -0.702098        -0.719302        -0.397177
 H        -0.234091        -0.505703         1.428288
 H         1.958831         2.190287        -0.498859
 H         1.817038         1.663691         1.218877
 H         4.273852        -1.121656        -0.024758
 H         1.872819        -1.147904         2.013314
 H         2.511548        -3.018878        -0.117740
 H         0.746352        -2.335522        -0.296331
 H         1.578532         0.201697        -2.473966
