19
Iteration:  3645charge 0 multiplicity 1
 C        -0.119759        -0.361873         0.246682
 C         1.309463        -0.003656         0.177642
 C         2.018464         1.275473         0.453055
 O         3.367317         0.984711         0.264541
 C         3.332564        -0.384135        -0.052422
 C         2.329155        -1.058446         0.915252
 C         2.016071        -2.083148        -0.204838
 C         2.180321        -0.753686        -0.993742
 O         1.946288        -0.738949        -2.337079
 H        -0.647413        -0.501349        -0.686798
 H        -0.266787        -1.228437         0.717264
 H        -0.737030         0.403043         0.731714
 H         1.699037         2.180974        -0.181429
 H         1.824114         1.703189         1.457765
 H         4.318110        -0.762433        -0.172990
 H         2.390360        -1.031976         2.021932
 H         2.734409        -2.851442        -0.252350
 H         0.945652        -2.463103        -0.200715
 H         1.982345         0.198879        -2.696909
