19
Iteration:  2200
 C        -0.098788        -0.310603         0.301292
 C         1.310178        -0.053690         0.162780
 C         2.005225         1.370860         0.247906
 O         3.382722         0.965689         0.000521
 C         3.316455        -0.449006         0.033434
 C         2.229827        -1.109184         0.970151
 C         1.985748        -2.168557        -0.085518
 C         2.161095        -0.856854        -0.876583
 O         1.990244        -0.528056        -2.232061
 H        -0.459305         0.438045         1.145826
 H        -0.584779        -0.087392        -0.656765
 H        -0.377290        -1.295748         0.603493
 H         1.744746         2.059002        -0.662667
 H         1.721660         1.921633         1.160226
 H         4.334030        -0.956502        -0.150137
 H         2.206329        -1.248339         2.121711
 H         2.787915        -2.937305        -0.161907
 H         0.939012        -2.665743        -0.050181
 H         2.853578        -0.152604        -2.612418
