19
Iteration:  4268charge 0 multiplicity 1
 C        -0.184937        -0.150136         0.455989
 C         1.301012        -0.106052         0.192582
 C         1.859721         1.266246         0.290482
 O         3.312203         1.018057         0.160913
 C         3.305904        -0.398744        -0.034298
 C         2.312314        -1.096787         0.896535
 C         2.091180        -2.169010        -0.224498
 C         2.216716        -0.789906        -0.948799
 O         2.138959        -0.708675        -2.314740
 H        -0.597206         0.745953         1.045076
 H        -0.810509        -0.424062        -0.414227
 H        -0.441667        -1.015301         1.117544
 H         1.466678         1.867524        -0.590655
 H         1.513998         1.698196         1.337419
 H         4.356384        -0.795937        -0.224615
 H         2.284121        -1.201420         1.910133
 H         2.895307        -2.890543        -0.427176
 H         1.129439        -2.699028        -0.130499
 H         2.221415         0.244835        -2.624292
