19
Iteration:  3430charge 0 multiplicity 1
 C        -0.176545        -0.321363         0.388522
 C         1.337055        -0.062900         0.141505
 C         1.943257         1.314526         0.266663
 O         3.350563         1.050034         0.106031
 C         3.376244        -0.384450        -0.038362
 C         2.336744        -1.049190         0.968868
 C         1.909987        -2.077838        -0.135804
 C         2.122486        -0.801403        -0.937582
 O         2.133127        -0.772434        -2.304839
 H        -0.179287        -0.949679         1.236946
 H        -0.891363         0.570057         0.446815
 H        -0.681759        -0.955228        -0.253113
 H         1.553732         2.085447        -0.564394
 H         1.721548         1.752483         1.385852
 H         4.336059        -0.753811         0.031801
 H         2.252760        -1.070728         2.094042
 H         2.581333        -2.876154        -0.311100
 H         0.887864        -2.522318        -0.073031
 H         2.548504         0.018569        -2.588750
