19
Iteration:  3621
 C        -0.198597        -0.253097         0.390997
 C         1.281270        -0.089781         0.191042
 C         1.914352         1.273888         0.314023
 O         3.401537         1.042689         0.176135
 C         3.368034        -0.390679         0.053070
 C         2.290861        -1.113747         0.918462
 C         2.069750        -2.163421        -0.284870
 C         2.169670        -0.846807        -0.986438
 O         2.022020        -0.656426        -2.329104
 H        -0.830051         0.196490        -0.346304
 H        -0.570525        -1.205932         0.483553
 H        -0.467330         0.381849         1.255171
 H         1.541444         2.078171        -0.360933
 H         1.806007         1.837717         1.315826
 H         4.428290        -0.844714         0.056870
 H         2.224899        -1.284524         1.979992
 H         2.949556        -2.796495        -0.349123
 H         1.164292        -2.685416        -0.166223
 H         2.287852         0.292086        -2.505938
