19
Iteration:  4410charge 0 multiplicity 1
 C        -0.165372        -0.108928         0.263941
 C         1.389618        -0.126704         0.205471
 C         1.850823         1.269849         0.291484
 O         3.342644         1.044533         0.124252
 C         3.346204        -0.314678         0.007568
 C         2.346801        -1.077806         0.938687
 C         2.179344        -2.182154        -0.110851
 C         2.146970        -0.859332        -0.865903
 O         1.959875        -0.819971        -2.304841
 H        -0.686794        -1.152454         0.160943
 H        -0.631397         0.573212         0.930175
 H        -0.513176         0.477313        -0.577289
 H         1.596001         2.009270        -0.493376
 H         1.607454         1.668479         1.228045
 H         4.377193        -0.772016        -0.092773
 H         2.382784        -0.999321         1.955586
 H         2.966207        -2.848430        -0.190618
 H         1.267861        -2.721017        -0.136191
 H         1.717694         0.109670        -2.581235
