19
Iteration:   324
 C        -0.192379         0.129796         0.381500
 C         1.322098         0.065795         0.220028
 C         2.183129         1.385950         0.077100
 O         3.597759         0.778194         0.048971
 C         3.318107        -0.663519         0.121462
 C         2.116338        -1.079746         1.003594
 C         1.848224        -2.154151        -0.177297
 C         2.105817        -0.866569        -0.893439
 O         2.022420        -0.620397        -2.246462
 H        -0.580011         0.285299         1.416245
 H        -0.591885         0.873128        -0.263099
 H        -0.566284        -0.955487         0.063036
 H         1.906452         1.808972        -0.827638
 H         2.089207         2.168674         0.821310
 H         4.254644        -1.196062         0.235735
 H         2.070292        -1.222117         2.128508
 H         2.746140        -2.834549        -0.420404
 H         0.853422        -2.662205        -0.068407
 H         1.543174        -1.450652        -2.644155
