19
Iteration:  4897
 C        -0.213356        -0.144908         0.090684
 C         1.309675        -0.086226         0.123167
 C         1.957607         1.341358         0.240146
 O         3.359779         1.134062         0.105138
 C         3.407268        -0.297942         0.039876
 C         2.395858        -0.904911         0.980194
 C         2.162613        -2.127531         0.021328
 C         2.201553        -0.913811        -0.837800
 O         1.827520        -1.067134        -2.260124
 H        -0.572603        -1.185012         0.330029
 H        -0.601260         0.399725         0.947099
 H        -0.595398         0.339380        -0.789139
 H         1.592450         1.923114        -0.605020
 H         1.735517         1.792300         1.213083
 H         4.426286        -0.774963        -0.026129
 H         2.263846        -0.901215         2.009297
 H         2.956462        -2.984817         0.021093
 H         1.263623        -2.777195         0.199073
 H         1.932495        -0.151520        -2.635050
