19
Iteration:  4908charge 0 multiplicity 1
 C        -0.154445        -0.209698         0.139531
 C         1.372514         0.017458         0.147139
 C         1.948298         1.368851         0.211484
 O         3.376285         1.122577         0.111157
 C         3.433836        -0.340113         0.034717
 C         2.310023        -0.940386         0.995524
 C         2.109063        -2.149845         0.029162
 C         2.104354        -0.899651        -0.918932
 O         1.860252        -1.056639        -2.206631
 H        -0.332300        -1.313182         0.271465
 H        -0.793547         0.408803         0.731943
 H        -0.522201        -0.190646        -0.891030
 H         1.593228         2.061579        -0.541814
 H         1.684721         1.867237         1.149801
 H         4.561824        -0.495770         0.032429
 H         2.501579        -0.910531         2.016452
 H         3.102918        -2.657138        -0.216730
 H         1.068238        -2.563008         0.100747
 H         1.918135        -0.280492        -2.707536
