19
Iteration:  4837charge 0 multiplicity 1
 C        -0.275842        -0.240407         0.411406
 C         1.290872        -0.035391         0.180924
 C         1.928671         1.320929         0.051172
 O         3.305273         1.091078        -0.106611
 C         3.382475        -0.395448        -0.001538
 C         2.284367        -0.952872         1.025748
 C         1.979335        -2.113889         0.074541
 C         2.219606        -0.847537        -0.870474
 O         2.169627        -0.923199        -2.249990
 H        -0.633129        -1.077648        -0.169109
 H        -0.459164        -0.420599         1.501228
 H        -0.909266         0.648769         0.109905
 H         1.627304         1.916384        -0.758610
 H         1.845543         1.930097         0.959587
 H         4.361864        -0.923270        -0.030336
 H         2.351646        -0.983306         2.183021
 H         2.903646        -2.702222         0.043048
 H         0.992275        -2.532149         0.088088
 H         2.661796        -0.221910        -2.614384
