19
Iteration:  3294
 C        -0.182965        -0.300124         0.263394
 C         1.280070        -0.085219         0.157282
 C         1.999782         1.280317         0.369157
 O         3.366510         0.999707         0.138990
 C         3.348912        -0.383509        -0.011285
 C         2.300789        -0.977212         0.927227
 C         2.053617        -2.101754        -0.047358
 C         2.129612        -0.814714        -0.934426
 O         2.029004        -0.737005        -2.382538
 H        -0.590196        -0.180552         1.323470
 H        -0.678067         0.240599        -0.480899
 H        -0.508741        -1.439611         0.091462
 H         1.699515         2.144576        -0.299421
 H         1.775215         1.823625         1.476648
 H         4.405703        -0.713427        -0.130591
 H         2.419547        -1.134620         1.955925
 H         2.769158        -2.901634        -0.307499
 H         1.111245        -2.565994         0.038899
 H         2.165353         0.257363        -2.389039
