19
Iteration:  1926
 C        -0.129142        -0.140437         0.136159
 C         1.350350        -0.057086         0.171691
 C         1.985686         1.318386         0.297075
 O         3.364174         0.941161         0.133713
 C         3.315092        -0.429897        -0.043617
 C         2.234828        -1.089697         1.014948
 C         2.172904        -2.198559        -0.072410
 C         2.139061        -0.878659        -0.875896
 O         1.849527        -0.613468        -2.225695
 H        -0.478536         0.552638         1.053263
 H        -0.464136         0.369334        -0.748498
 H        -0.444406        -1.126818         0.263274
 H         1.550243         1.967734        -0.557370
 H         1.938805         1.860572         1.357949
 H         4.293983        -0.877836        -0.068643
 H         2.378898        -1.140153         2.041696
 H         3.017187        -2.877799        -0.416963
 H         1.276469        -2.785785        -0.221280
 H         2.730333        -0.326265        -2.685897
