19
Iteration:  4655
 C        -0.237609        -0.092668         0.408605
 C         1.317340        -0.138809         0.195177
 C         1.854688         1.302981         0.087229
 O         3.313605         1.096134         0.034457
 C         3.319595        -0.410553        -0.059638
 C         2.327782        -0.974570         1.006604
 C         2.101797        -2.227276        -0.010701
 C         2.165233        -0.932734        -0.865657
 O         2.099632        -0.774346        -2.311356
 H        -0.347401        -0.377657         1.522536
 H        -0.558643         0.911293         0.062558
 H        -0.921893        -0.891853         0.024831
 H         1.401210         1.666980        -0.900350
 H         1.717511         2.051008         0.881835
 H         4.296611        -0.702151        -0.028360
 H         2.422799        -0.985718         2.164395
 H         3.007632        -2.785579        -0.023222
 H         1.177286        -2.737051         0.138585
 H         3.057391        -0.467574        -2.482834
