19
Iteration:  3382charge 0 multiplicity 1
 C        -0.232324        -0.139678         0.338137
 C         1.301861        -0.101614         0.176078
 C         1.887934         1.270950         0.291769
 O         3.320776         1.001098         0.101496
 C         3.329839        -0.405534        -0.016293
 C         2.313292        -1.044179         0.971459
 C         2.154354        -2.169334        -0.038123
 C         2.096847        -0.841128        -0.890996
 O         2.078197        -0.662024        -2.375933
 H        -0.484230        -0.767460         1.263077
 H        -0.564861         0.833587         0.300468
 H        -0.884436        -0.656673        -0.495991
 H         1.558893         1.932245        -0.509728
 H         1.670517         1.784654         1.392935
 H         4.196904        -0.994865        -0.471756
 H         2.608808        -1.133578         1.978527
 H         3.040620        -2.819202        -0.246194
 H         1.290364        -2.844167        -0.036589
 H         3.010854        -0.440933        -2.692888
