19
Iteration:  2749charge 0 multiplicity 1
 C        -0.215498        -0.312316         0.346225
 C         1.331111        -0.043185         0.261267
 C         1.995581         1.386746         0.361120
 O         3.382773         1.073860         0.078951
 C         3.263208        -0.360040        -0.064369
 C         2.242780        -1.044819         0.915249
 C         1.959297        -2.161073        -0.147776
 C         2.147051        -0.838206        -0.943299
 O         2.228504        -0.707870        -2.285897
 H        -0.544687        -0.109217         1.439054
 H        -0.807524         0.203394        -0.415054
 H        -0.158917        -1.457553         0.122306
 H         1.579589         1.909933        -0.584327
 H         1.853478         2.042840         1.424274
 H         4.236373        -0.938181        -0.203493
 H         2.353278        -1.097523         2.012620
 H         2.682789        -3.024809        -0.296038
 H         1.034738        -2.729204        -0.190329
 H         1.372876        -1.019969        -2.663817
