19
Iteration:   589charge 0 multiplicity 1
 C        -0.125597         0.090128         0.295624
 C         1.387937        -0.003580         0.155627
 C         2.097572         1.266004         0.181070
 O         3.454925         0.840709         0.155842
 C         3.350732        -0.584246        -0.068102
 C         2.227000        -1.022984         0.958661
 C         1.893194        -2.195657        -0.057069
 C         2.113560        -0.896882        -0.892035
 O         1.892561        -0.665414        -2.240890
 H        -0.315199         0.339172         1.360791
 H        -0.600912         0.750397        -0.448221
 H        -0.565533        -0.867951         0.044979
 H         1.974010         2.009072        -0.649429
 H         1.998715         1.950365         1.139001
 H         4.418167        -0.994120        -0.196623
 H         2.235669        -1.051049         2.101056
 H         2.641736        -3.016328        -0.135649
 H         0.778895        -2.444198        -0.040360
 H         2.591775        -0.174656        -2.622536
