19
Iteration:  2052charge 0 multiplicity 1
 C        -0.168924        -0.190594         0.486175
 C         1.296439        -0.140493         0.216756
 C         1.909803         1.309299         0.157676
 O         3.318326         1.011998         0.003636
 C         3.371984        -0.400003        -0.017136
 C         2.245067        -1.111585         0.977472
 C         1.980344        -2.180646        -0.163176
 C         2.169299        -0.842585        -0.894482
 O         2.258100        -0.607732        -2.246065
 H        -0.379800        -0.122575         1.523786
 H        -0.655571         0.744892        -0.021650
 H        -0.716386        -1.116160         0.033838
 H         1.564776         1.883032        -0.794202
 H         1.633772         1.872130         1.113498
 H         4.350652        -0.806340         0.089164
 H         2.261250        -1.439960         2.050709
 H         2.705478        -2.921792        -0.416021
 H         0.990828        -2.593847        -0.198309
 H         1.441150        -0.138084        -2.587853
