19
Iteration:   905charge 0 multiplicity 1
 C        -0.175791        -0.082533         0.082900
 C         1.368654        -0.025246         0.132002
 C         2.163063         1.293960         0.263823
 O         3.567809         0.904520         0.119329
 C         3.412870        -0.521806         0.110156
 C         2.211921        -1.103514         0.984894
 C         2.016027        -2.231329        -0.059605
 C         2.067024        -0.846424        -0.932759
 O         1.744426        -0.586911        -2.218964
 H        -0.597808         0.993855         0.314174
 H        -0.483158        -0.343287        -0.854678
 H        -0.708813        -0.595337         0.879414
 H         1.863756         2.125547        -0.459205
 H         1.947347         1.626700         1.292988
 H         4.259478        -1.138025         0.090432
 H         2.284007        -1.203921         2.038489
 H         2.863163        -2.890760        -0.274255
 H         1.059376        -2.758142         0.035749
 H         1.807139         0.446951        -2.369528
