19
Iteration:   637
 C        -0.157472        -0.014592         0.516455
 C         1.323053         0.036592         0.138554
 C         2.113395         1.331846         0.166343
 O         3.480530         0.803869         0.076870
 C         3.248508        -0.552773        -0.039816
 C         2.160035        -1.046419         0.893260
 C         1.842798        -2.124650        -0.149305
 C         2.096289        -0.858346        -0.885107
 O         2.124076        -0.608964        -2.201991
 H        -0.365640         0.848119         1.101812
 H        -0.782702        -0.008182        -0.410881
 H        -0.418582        -0.957205         0.978613
 H         1.847053         1.966674        -0.686741
 H         2.102596         1.926669         1.048228
 H         4.205400        -1.015687        -0.235021
 H         2.437686        -1.200265         1.884732
 H         2.681314        -2.829955        -0.255285
 H         0.863502        -2.510727        -0.228809
 H         2.292195        -1.446533        -2.801255
