19
Iteration:  2841charge 0 multiplicity 1
 C        -0.137767        -0.207504         0.211858
 C         1.377353        -0.109210         0.158935
 C         1.943406         1.348058         0.337186
 O         3.369108         1.051304         0.171175
 C         3.366795        -0.417499        -0.027211
 C         2.272595        -1.081049         0.942929
 C         2.067295        -2.165699        -0.070888
 C         2.175569        -0.872178        -0.911271
 O         1.878186        -0.666165        -2.296641
 H        -0.575082         0.368155         0.993136
 H        -0.541490         0.124020        -0.773685
 H        -0.411575        -1.211317         0.335600
 H         1.621306         2.113067        -0.387954
 H         1.791298         1.768420         1.459783
 H         4.404020        -0.659225        -0.158773
 H         2.335980        -1.155279         2.056056
 H         2.853766        -2.865893        -0.119011
 H         1.136009        -2.727504        -0.135640
 H         2.693461        -0.703524        -2.882413
