19
Iteration:  1152charge 0 multiplicity 1
 C        -0.217267         0.003160         0.557034
 C         1.246828         0.059397         0.284405
 C         2.104185         1.341280         0.217471
 O         3.487677         0.883214         0.084397
 C         3.269734        -0.617588        -0.062447
 C         2.182827        -1.049277         0.894863
 C         1.836093        -2.180657        -0.166613
 C         2.074320        -0.854823        -0.957069
 O         2.300237        -0.639992        -2.331181
 H        -0.816625         0.831287         0.274458
 H        -0.693669        -0.910434         0.058756
 H        -0.269292        -0.423384         1.619895
 H         1.969925         1.924537        -0.713069
 H         1.984644         1.927938         1.117837
 H         4.196231        -1.116927         0.033485
 H         2.256295        -1.191070         1.965105
 H         2.610601        -2.907672        -0.349681
 H         0.825455        -2.545149        -0.309369
 H         1.437284        -0.747083        -2.887269
