19
Iteration:  1224
 C        -0.230370         0.083123         0.088588
 C         1.409205        -0.025887         0.269257
 C         2.102814         1.266628         0.307014
 O         3.525972         0.920946         0.231549
 C         3.390383        -0.485391        -0.085398
 C         2.301873        -1.141126         0.966347
 C         1.971531        -2.152573        -0.136284
 C         2.093801        -0.785086        -0.858674
 O         1.767284        -0.803359        -2.235480
 H        -0.594905         1.124957         0.165970
 H        -0.631919        -0.260574        -0.924120
 H        -0.663097        -0.558645         0.806331
 H         1.665170         1.892390        -0.478133
 H         2.067596         1.769547         1.307828
 H         4.335494        -1.036504        -0.136461
 H         2.578332        -1.314256         2.029805
 H         2.836423        -2.806449        -0.480282
 H         0.937204        -2.532928         0.013095
 H         2.357773        -0.134692        -2.765440
