19
Iteration:  3700charge 0 multiplicity 1
 C        -0.141618        -0.139152         0.240346
 C         1.315145        -0.152083         0.228612
 C         1.874569         1.207161         0.438996
 O         3.337556         1.071656         0.163199
 C         3.392322        -0.426038        -0.008228
 C         2.328464        -1.140635         0.900380
 C         2.202488        -2.218529        -0.252653
 C         2.144514        -0.829470        -0.942674
 O         1.889003        -0.595612        -2.257501
 H        -0.626132        -1.013389        -0.171579
 H        -0.604104         0.139677         1.092258
 H        -0.441765         0.738740        -0.354744
 H         1.600136         1.890334        -0.431081
 H         1.659812         1.572773         1.494223
 H         4.366907        -0.760235        -0.073647
 H         2.385730        -1.174483         2.034258
 H         3.000078        -2.853817        -0.374457
 H         1.280566        -2.860668        -0.359635
 H         2.412200         0.236737        -2.525143
