19
Iteration:  4099charge 0 multiplicity 1
 C        -0.159260        -0.325431         0.492580
 C         1.308163        -0.089740         0.181495
 C         1.932062         1.309215         0.429896
 O         3.306942         1.081601         0.155202
 C         3.326139        -0.343921        -0.056476
 C         2.296050        -1.137262         0.852013
 C         1.959795        -2.152727        -0.217025
 C         2.126217        -0.779514        -0.979019
 O         2.211819        -0.706212        -2.387628
 H        -0.376963        -1.147110        -0.219394
 H        -0.360843        -0.593019         1.479714
 H        -0.734162         0.569164         0.381423
 H         1.576579         2.119699        -0.336013
 H         1.667202         1.653934         1.499820
 H         4.218562        -0.871438        -0.222118
 H         2.243526        -1.220722         1.990787
 H         2.526265        -2.998155        -0.502025
 H         0.934546        -2.355401        -0.172920
 H         2.593673         0.219099        -2.552279
