19
Iteration:  2648charge 0 multiplicity 1
 C        -0.183610        -0.331957         0.148569
 C         1.360422        -0.069793         0.199095
 C         2.042491         1.286923         0.295981
 O         3.418313         1.039349         0.202882
 C         3.339761        -0.332181        -0.076386
 C         2.291482        -1.106028         0.962827
 C         2.030598        -2.137787        -0.031521
 C         2.129477        -0.845507        -0.887525
 O         1.967646        -0.582934        -2.283741
 H        -0.797473         0.076096         1.045514
 H        -0.463886         0.171611        -0.773826
 H        -0.213576        -1.365566         0.140884
 H         1.662831         1.944486        -0.552652
 H         1.723926         1.990724         1.156426
 H         4.293850        -0.694171        -0.341077
 H         2.423510        -1.223041         2.046652
 H         2.689690        -2.975524        -0.094901
 H         0.984268        -2.290774        -0.053702
 H         1.454380        -1.341957        -2.530866
