19
Iteration:  1540
 C        -0.178126        -0.055105         0.336453
 C         1.294448        -0.014121         0.249506
 C         2.028833         1.327818         0.374915
 O         3.398004         1.015183         0.105598
 C         3.347985        -0.460137        -0.058357
 C         2.251653        -1.116504         0.939268
 C         1.916249        -2.133160        -0.161229
 C         2.132075        -0.826915        -0.921141
 O         2.141972        -0.840851        -2.344840
 H        -0.657339         0.713253         1.093802
 H        -0.749769         0.016264        -0.567298
 H        -0.561455        -0.951587         0.879918
 H         1.599781         1.908078        -0.504800
 H         1.973646         1.693184         1.395231
 H         4.254549        -0.905257        -0.289266
 H         2.340266        -1.325162         2.003042
 H         2.679627        -2.834163        -0.392736
 H         0.941514        -2.548474         0.028419
 H         2.083743        -0.073448        -2.857832
