19
Iteration:  2115charge 0 multiplicity 1
 C        -0.207868        -0.139403         0.232852
 C         1.321998        -0.058657         0.125531
 C         1.928472         1.267227         0.379003
 O         3.366718         0.989111         0.220672
 C         3.420276        -0.396794        -0.043052
 C         2.309123        -1.025294         0.922297
 C         2.109338        -2.112721        -0.110925
 C         2.253342        -0.829246        -0.927202
 O         1.897390        -0.723997        -2.353470
 H        -0.577923         0.161957         1.197806
 H        -0.624979         0.578831        -0.507573
 H        -0.582814        -1.148147         0.184890
 H         1.865107         2.090032        -0.265130
 H         1.797185         1.477457         1.442000
 H         4.434144        -0.779479         0.072676
 H         2.462065        -0.970513         2.095499
 H         2.921766        -2.826081        -0.215632
 H         1.073788        -2.577021        -0.187810
 H         1.445081        -1.555590        -2.562120
