19
Iteration:  4066
 C        -0.216880        -0.102484         0.308078
 C         1.269938        -0.135625         0.232672
 C         1.917215         1.225029         0.426399
 O         3.307230         1.023108         0.186170
 C         3.344485        -0.389911        -0.005867
 C         2.381380        -1.169315         0.890815
 C         2.239438        -2.182689        -0.228134
 C         2.144902        -0.789944        -0.937441
 O         1.955937        -0.631935        -2.345519
 H        -0.609217        -1.184844         0.234237
 H        -0.812772         0.083510         1.151063
 H        -0.598731         0.320657        -0.619258
 H         1.687803         2.077609        -0.368128
 H         1.701607         1.666804         1.501581
 H         4.348798        -0.744133        -0.178379
 H         2.446529        -1.371822         2.014239
 H         3.001866        -2.870269        -0.524113
 H         1.323188        -2.721374        -0.212096
 H         2.385156         0.173941        -2.610239
