19
Iteration:  1301charge 0 multiplicity 1
 C        -0.155262        -0.047435         0.332660
 C         1.377158         0.055898         0.301802
 C         2.075313         1.321661         0.249816
 O         3.455849         0.902677         0.077658
 C         3.307826        -0.482171        -0.045603
 C         2.273789        -1.112040         0.951127
 C         1.808575        -2.141920        -0.113365
 C         2.067736        -0.851138        -0.861283
 O         2.130215        -0.660983        -2.309029
 H        -0.647938        -0.015777         1.331474
 H        -0.529541         0.774579        -0.319378
 H        -0.418483        -1.027408         0.054968
 H         1.712263         1.798341        -0.663479
 H         1.927350         2.134906         0.979732
 H         4.171774        -1.011045        -0.295640
 H         2.460174        -1.415918         1.981725
 H         2.603994        -2.973224        -0.190105
 H         0.806505        -2.616294        -0.210423
 H         1.539498        -1.274716        -2.669528
