19
Iteration:  3915
 C        -0.224619        -0.266062         0.459962
 C         1.297463        -0.164354         0.207581
 C         1.917341         1.265393         0.481220
 O         3.317485         1.009293         0.231899
 C         3.369171        -0.402662        -0.049667
 C         2.349418        -1.163217         0.815942
 C         2.052299        -2.206749        -0.357385
 C         2.129765        -0.783536        -1.026560
 O         2.109053        -0.506715        -2.318280
 H        -0.562433         0.578726         0.977437
 H        -0.776324        -0.294519        -0.470587
 H        -0.654626        -1.007692         1.100910
 H         1.521407         2.012302        -0.381180
 H         1.743407         1.754710         1.425007
 H         4.339031        -0.759124         0.133415
 H         2.520450        -1.382388         1.899819
 H         2.872984        -2.822231        -0.794820
 H         1.003059        -2.657672        -0.332225
 H         2.533805         0.339782        -2.475010
