19
Iteration:  1723charge 0 multiplicity 1
 C        -0.219334        -0.104900         0.292129
 C         1.306743        -0.089596         0.170287
 C         1.927365         1.261242         0.303756
 O         3.438236         0.956847         0.129183
 C         3.375439        -0.371385        -0.007914
 C         2.351470        -1.070317         0.917860
 C         1.870801        -2.157896        -0.111351
 C         2.164331        -0.823078        -0.901059
 O         2.111791        -0.742178        -2.283280
 H        -0.399333         0.576754         0.986705
 H        -0.647238         0.202054        -0.666310
 H        -0.547469        -1.054872         0.738462
 H         1.710474         1.834507        -0.575001
 H         1.800385         1.750464         1.260622
 H         4.262029        -0.717214        -0.463753
 H         2.520025        -1.349068         1.976761
 H         2.558057        -3.045275        -0.182630
 H         0.793861        -2.432074         0.068848
 H         1.888476         0.214263        -2.566295
