19
Iteration:  3267charge 0 multiplicity 1
 C        -0.193770        -0.089819         0.411047
 C         1.289830        -0.136050         0.214131
 C         1.875765         1.314720         0.358672
 O         3.305802         1.097355         0.034393
 C         3.318070        -0.375765        -0.013694
 C         2.244948        -1.160270         0.904237
 C         2.131925        -2.197448        -0.209294
 C         2.211103        -0.850741        -0.901302
 O         2.132690        -0.783622        -2.279795
 H        -0.449123         0.563649         1.215839
 H        -0.545502         0.247877        -0.626143
 H        -0.568951        -1.010082         0.544553
 H         1.453221         2.020965        -0.365867
 H         1.778069         1.668453         1.423894
 H         4.364152        -0.656374        -0.145609
 H         2.272531        -1.424882         2.033390
 H         2.926204        -2.902980        -0.455768
 H         1.084932        -2.661816        -0.415240
 H         2.189987         0.223858        -2.374987
