19
Iteration:  4043
 C        -0.165907        -0.168130         0.149745
 C         1.378109        -0.171548         0.242472
 C         1.910796         1.245597         0.355039
 O         3.342169         1.034084         0.279512
 C         3.407486        -0.378562        -0.062403
 C         2.322297        -1.158975         0.901273
 C         2.217136        -2.182206        -0.241208
 C         2.193513        -0.840399        -0.931702
 O         1.777862        -0.577987        -2.224345
 H        -0.749804        -1.012466         0.623353
 H        -0.713419         0.589940         0.704664
 H        -0.389044        -0.112146        -0.935858
 H         1.501406         2.151815        -0.327348
 H         1.712153         1.483874         1.480087
 H         4.408149        -0.882717        -0.032116
 H         2.474317        -1.216979         1.975790
 H         3.089470        -2.777336        -0.480735
 H         1.431179        -2.819441        -0.373425
 H         2.201786         0.297229        -2.393857
