19
Iteration:  3313
 C        -0.231312        -0.371038         0.178756
 C         1.309510        -0.042233         0.200850
 C         1.963970         1.364640         0.299050
 O         3.455986         1.071395         0.228495
 C         3.375484        -0.412104        -0.083655
 C         2.342500        -0.996544         0.943877
 C         1.985123        -2.194121        -0.116897
 C         2.165567        -0.819980        -0.905705
 O         1.922040        -0.716659        -2.262737
 H        -0.450933        -0.499657         1.190460
 H        -0.756834         0.392029        -0.371846
 H        -0.409370        -1.305189        -0.296429
 H         1.740451         2.044601        -0.465734
 H         1.783170         1.898234         1.332662
 H         4.359817        -0.722166        -0.317077
 H         2.529956        -0.995957         2.082880
 H         2.812492        -2.963528        -0.032419
 H         1.074059        -2.714813         0.021242
 H         2.389617        -0.001636        -2.712040
