19
Iteration:   117
 C        -0.139730         0.165745         0.428241
 C         1.328617        -0.031912         0.243396
 C         2.172613         1.274414         0.299745
 O         3.492105         0.909197         0.130977
 C         3.251671        -0.491160        -0.057039
 C         2.210968        -1.094122         0.971775
 C         1.762770        -2.164630        -0.117761
 C         2.080247        -0.937052        -0.998616
 O         2.098336        -0.780075        -2.401974
 H        -0.171301         0.422538         1.496304
 H        -0.453843         1.044950        -0.046793
 H        -0.845232        -0.727163         0.346283
 H         1.805410         2.053057        -0.598166
 H         2.034688         2.009541         1.161291
 H         4.164477        -0.904558        -0.454299
 H         2.174085        -1.123251         2.144669
 H         2.322115        -3.146701        -0.194396
 H         0.622763        -2.186773        -0.062584
 H         2.951339        -1.024255        -2.622806
