19
Iteration:  4704
 C        -0.134715        -0.337934         0.233542
 C         1.335161         0.013627         0.136863
 C         2.003674         1.404796         0.182782
 O         3.372276         1.096678         0.046241
 C         3.331343        -0.340658        -0.003275
 C         2.302136        -0.949896         1.026586
 C         2.032165        -2.093165         0.000604
 C         2.156762        -0.834528        -0.826065
 O         1.967760        -0.984381        -2.254860
 H        -0.489494        -1.236318         0.756760
 H        -0.757955         0.579411         0.240322
 H        -0.360772        -0.700452        -0.817195
 H         1.729293         2.188019        -0.455658
 H         1.958039         1.813721         1.220573
 H         4.369130        -0.940343        -0.167300
 H         2.480994        -0.909459         2.062405
 H         2.788316        -2.990567        -0.002935
 H         0.984269        -2.607248         0.138097
 H         1.595145        -0.191991        -2.572820
