19
Iteration:  3273
 C        -0.149218        -0.114598         0.374098
 C         1.353520        -0.099609         0.202486
 C         1.868513         1.312388         0.358930
 O         3.303091         1.057483         0.036472
 C         3.301381        -0.404596         0.005735
 C         2.277307        -1.118486         0.948292
 C         2.097672        -2.182198        -0.200079
 C         2.213751        -0.833471        -0.938672
 O         2.111574        -0.767060        -2.288459
 H        -0.674787         0.404480         1.273905
 H        -0.620522         0.267930        -0.535570
 H        -0.663912        -1.207909         0.530079
 H         1.303226         2.135547        -0.174226
 H         1.717144         1.711636         1.416027
 H         4.335311        -0.841384        -0.041564
 H         2.244877        -1.237498         1.978927
 H         2.930320        -2.892196        -0.362898
 H         1.192858        -2.744892        -0.425503
 H         2.105671         0.189936        -2.565603
