19
Iteration:  1835charge 0 multiplicity 1
 C        -0.288580        -0.060082         0.387211
 C         1.248627        -0.041939         0.219206
 C         1.996081         1.368585         0.388672
 O         3.368537         1.022460         0.085205
 C         3.372010        -0.449559        -0.059263
 C         2.218977        -1.072331         0.874320
 C         2.045857        -2.140089        -0.145078
 C         2.192621        -0.905931        -0.965440
 O         2.223406        -0.781015        -2.309958
 H        -0.750601         0.026203         1.374563
 H        -0.920267         0.630351        -0.189075
 H        -0.704446        -1.113666         0.193288
 H         1.662083         2.209550        -0.324198
 H         1.991540         1.652430         1.515845
 H         4.419433        -0.850907        -0.105928
 H         2.384873        -1.196128         1.980553
 H         2.799290        -2.992628        -0.346822
 H         0.960794        -2.471212        -0.216102
 H         1.326630        -0.989908        -2.611197
