19
Iteration:  4835
 C        -0.267574        -0.249238         0.411044
 C         1.301934        -0.019865         0.176903
 C         1.918799         1.307951         0.063190
 O         3.310115         1.085871        -0.107576
 C         3.386982        -0.394410         0.012159
 C         2.272134        -0.931639         1.017516
 C         1.977096        -2.112487         0.085347
 C         2.211395        -0.867417        -0.887092
 O         2.171620        -0.914180        -2.247359
 H        -0.624276        -1.181956        -0.094655
 H        -0.446362        -0.488184         1.509285
 H        -0.925774         0.665763         0.172289
 H         1.637191         1.926446        -0.844586
 H         1.854806         1.944434         0.976450
 H         4.442448        -0.914198        -0.066705
 H         2.313045        -0.969875         2.102125
 H         2.791952        -2.690763         0.038551
 H         0.967824        -2.479281         0.073221
 H         2.727040        -0.209082        -2.666813
