19
Iteration:  1917
 C        -0.131172        -0.104040         0.225719
 C         1.345765        -0.113745         0.251220
 C         1.946035         1.262654         0.231467
 O         3.391341         0.958830         0.128036
 C         3.317289        -0.425550         0.025913
 C         2.263583        -1.099549         0.953159
 C         2.070192        -2.141179        -0.155107
 C         2.151848        -0.858352        -0.878409
 O         1.913947        -0.652705        -2.216681
 H        -0.558663         0.427125         1.144451
 H        -0.415179         0.297681        -0.752937
 H        -0.475622        -1.096917         0.126564
 H         1.676515         1.850524        -0.695070
 H         1.727937         1.985808         1.048447
 H         4.322725        -0.849876        -0.088927
 H         2.458286        -1.114391         2.040607
 H         3.011105        -2.597608        -0.299109
 H         1.244740        -2.825343        -0.182598
 H         2.607227        -0.073609        -2.686842
