19
Iteration:  2117charge 0 multiplicity 1
 C        -0.221992        -0.140545         0.228938
 C         1.321947        -0.070563         0.156265
 C         1.934551         1.274461         0.365478
 O         3.372776         0.989831         0.224732
 C         3.426849        -0.392380        -0.027780
 C         2.314242        -1.035145         0.917385
 C         2.113639        -2.103689        -0.129727
 C         2.250478        -0.834930        -0.931901
 O         1.889548        -0.733047        -2.352443
 H        -0.520763         0.231184         1.171373
 H        -0.620216         0.589178        -0.549606
 H        -0.653480        -1.192238         0.185714
 H         1.805539         2.171397        -0.285980
 H         1.829157         1.509167         1.471744
 H         4.392813        -0.756426         0.095560
 H         2.440779        -0.982142         2.035671
 H         2.894255        -2.829225        -0.209222
 H         1.133013        -2.526822        -0.170633
 H         1.480651        -1.536264        -2.572602
