19
Iteration:  1077
 C        -0.168524        -0.026638         0.032788
 C         1.351901         0.033108         0.221601
 C         2.204235         1.287270         0.440386
 O         3.608872         0.833337         0.216839
 C         3.296404        -0.539587        -0.019341
 C         2.216537        -1.059766         0.975936
 C         2.020790        -2.125808        -0.157547
 C         2.080344        -0.811518        -0.933834
 O         1.698525        -0.616478        -2.237394
 H        -0.241337        -0.284448        -1.026354
 H        -0.552905        -0.791608         0.589354
 H        -0.812715         0.874471         0.364963
 H         1.808351         2.038062        -0.216866
 H         2.055468         1.544538         1.505824
 H         4.199459        -1.046817        -0.320076
 H         2.303934        -1.141731         2.051357
 H         2.875608        -2.754721        -0.234583
 H         1.173081        -2.792023        -0.209239
 H         2.302067        -1.047354        -2.810833
