19
Iteration:  2683
 C        -0.099640        -0.088169         0.342814
 C         1.305466        -0.084254         0.155057
 C         1.905376         1.285490         0.227355
 O         3.286070         0.992315         0.164084
 C         3.270240        -0.400003         0.038833
 C         2.291064        -1.134507         0.980912
 C         2.181252        -2.157193        -0.144513
 C         2.148650        -0.841178        -0.948411
 O         2.111771        -0.649731        -2.319341
 H        -0.399937         0.311171         1.354379
 H        -0.706246         0.492127        -0.331040
 H        -0.643085        -1.072828         0.258415
 H         1.620522         1.733305        -0.757630
 H         1.646427         1.855225         1.209495
 H         4.317176        -0.784575        -0.043982
 H         2.271104        -1.271922         2.090626
 H         3.011752        -2.865746        -0.301856
 H         1.365585        -2.835340        -0.211523
 H         1.183509        -0.851067        -2.532118
