19
Iteration:  4745
 C        -0.145112        -0.066889         0.134259
 C         1.318153        -0.139852         0.178327
 C         1.890775         1.345924         0.173950
 O         3.324292         1.053215         0.032635
 C         3.324578        -0.297411        -0.021691
 C         2.371148        -0.954031         1.009648
 C         2.205401        -2.198897         0.118158
 C         2.171141        -0.926894        -0.894290
 O         1.922254        -0.963510        -2.189508
 H        -0.609101        -1.140582         0.195363
 H        -0.494494         0.685101         0.906169
 H        -0.466761         0.351373        -0.870004
 H         1.502549         2.139475        -0.534894
 H         1.589440         1.569766         1.219573
 H         4.416823        -0.598873        -0.142238
 H         2.376522        -0.952633         2.057530
 H         3.035354        -2.784783        -0.088057
 H         1.197982        -2.654305         0.120541
 H         1.927150        -0.056054        -2.655452
