19
Iteration:   428charge 0 multiplicity 1
 C        -0.126129         0.054880         0.287216
 C         1.321737         0.007001         0.159553
 C         2.126103         1.326661         0.230226
 O         3.556618         0.834657         0.126452
 C         3.298387        -0.618031        -0.029891
 C         2.259081        -1.086333         0.965199
 C         1.788539        -2.141593        -0.013588
 C         2.056856        -0.877879        -0.879289
 O         1.962748        -0.627750        -2.336033
 H        -0.265476         0.814196         1.060675
 H        -0.663167         0.433077        -0.688473
 H        -0.610200        -0.826374         0.543014
 H         1.911587         2.120674        -0.539318
 H         1.981895         1.762715         1.198746
 H         4.331920        -1.154749        -0.228649
 H         2.345418        -1.192882         2.078924
 H         2.432833        -2.987328        -0.196847
 H         0.741952        -2.467910         0.199454
 H         2.841697        -0.644555        -2.633364
