19
Iteration:   460
 C        -0.143853         0.085320         0.398988
 C         1.325100        -0.010856         0.212623
 C         2.066653         1.310677         0.006603
 O         3.492761         0.866211         0.103792
 C         3.327133        -0.619379         0.033683
 C         2.223085        -1.161957         0.999350
 C         1.783794        -2.190453        -0.094693
 C         2.139366        -0.941088        -0.900480
 O         2.086327        -0.481515        -2.220030
 H        -0.246451         0.917462         1.122301
 H        -0.647313         0.609074        -0.526032
 H        -0.616238        -0.707700         0.864927
 H         1.954974         1.785405        -0.963771
 H         1.983369         1.996114         0.773141
 H         4.402474        -1.126780        -0.118898
 H         2.376458        -1.446619         2.080719
 H         2.371813        -3.106997        -0.243371
 H         0.663816        -2.377924        -0.012569
 H         1.896845        -1.214127        -2.909028
