19
Iteration:   952
 C        -0.177990         0.032102         0.409491
 C         1.309663        -0.087536         0.199272
 C         2.090532         1.326776         0.440440
 O         3.429350         0.984049         0.199985
 C         3.371399        -0.432070        -0.021380
 C         2.374770        -1.143799         0.844485
 C         1.729916        -2.119868        -0.208015
 C         2.101527        -0.843615        -0.999296
 O         2.101111        -0.866512        -2.384922
 H        -0.689581         0.867993        -0.075610
 H        -0.826987        -0.913866         0.124019
 H        -0.359801         0.308235         1.418768
 H         1.737474         2.057607        -0.343438
 H         1.928600         1.791290         1.403961
 H         4.328726        -0.910989        -0.338717
 H         2.207103        -1.288771         1.909387
 H         2.315362        -3.048795        -0.449350
 H         0.657062        -2.238595         0.000215
 H         2.677808        -0.150418        -2.597661
