19
Iteration:  4535
 C        -0.139387        -0.110961         0.119827
 C         1.331874        -0.088069         0.161430
 C         1.877495         1.283907         0.199862
 O         3.329321         1.069254         0.090226
 C         3.350025        -0.391000         0.033177
 C         2.381236        -1.006118         0.974262
 C         2.244506        -2.250282        -0.043059
 C         2.155481        -0.896131        -0.870026
 O         1.817418        -0.718231        -2.161007
 H        -0.680868         0.732930        -0.368627
 H        -0.306607        -1.139834        -0.315947
 H        -0.597517        -0.025382         1.152000
 H         1.611217         1.909816        -0.618471
 H         1.736953         1.831950         1.119615
 H         4.361682        -0.644370        -0.032371
 H         2.369792        -1.024713         2.156507
 H         3.152355        -2.778266        -0.044255
 H         1.294943        -2.642893         0.074983
 H         2.341468        -1.180038        -2.817121
