19
Iteration:   228charge 0 multiplicity 1
 C        -0.161577         0.193064         0.126497
 C         1.387987         0.022100         0.166413
 C         2.235760         1.305689         0.384377
 O         3.530773         0.823033         0.143754
 C         3.355911        -0.547931         0.094304
 C         2.184609        -1.088147         0.986373
 C         1.983528        -2.175722        -0.049895
 C         2.135218        -0.913019        -0.961046
 O         1.685468        -0.718112        -2.344829
 H        -0.489161         1.035846         0.746536
 H        -0.468179         0.460905        -0.824262
 H        -0.673045        -0.736142         0.520705
 H         2.084262         2.182990        -0.374603
 H         2.174490         1.794035         1.384817
 H         4.246446        -1.022008         0.200065
 H         2.304061        -1.122136         2.052204
 H         2.820820        -2.887477        -0.248969
 H         0.958050        -2.523107        -0.044305
 H         2.173297        -1.272126        -3.081869
