19
Iteration:  2690charge 0 multiplicity 1
 C        -0.145882        -0.061918         0.411880
 C         1.320863        -0.145121         0.154032
 C         1.903354         1.257744         0.196427
 O         3.281962         1.030028         0.164412
 C         3.289860        -0.362787         0.006376
 C         2.265661        -1.110636         0.973595
 C         2.136194        -2.211941        -0.152780
 C         2.222370        -0.876184        -0.952261
 O         2.126912        -0.655320        -2.312499
 H        -0.378513         0.332444         1.471171
 H        -0.610247         0.593076        -0.412603
 H        -0.562599        -1.025037         0.286192
 H         1.634856         2.068765        -0.570348
 H         1.625668         1.705407         1.179979
 H         4.285840        -0.688405        -0.073469
 H         2.117077        -1.400493         2.025162
 H         3.121031        -2.713662        -0.191824
 H         1.167395        -2.870459        -0.157446
 H         1.210171        -0.716493        -2.759753
