19
Iteration:  4592
 C        -0.134596        -0.348672         0.249618
 C         1.355408        -0.044231         0.112693
 C         1.965332         1.375754         0.198387
 O         3.324228         1.068931         0.118961
 C         3.374500        -0.395741        -0.067360
 C         2.344879        -0.948173         1.009915
 C         2.009995        -2.070325         0.001886
 C         2.143905        -0.849214        -0.903563
 O         1.956871        -0.780649        -2.252813
 H        -0.676256         0.580570         0.612951
 H        -0.678547        -0.464765        -0.700693
 H        -0.329225        -1.146838         1.020417
 H         1.611027         2.057042        -0.522157
 H         1.804863         1.826650         1.200323
 H         4.387891        -0.897647        -0.144685
 H         2.484655        -0.965612         2.110858
 H         2.701390        -2.898762         0.071733
 H         1.076740        -2.686807         0.065246
 H         2.457936        -1.490404        -2.717570
