19
Iteration:  2228
 C        -0.260591        -0.188225         0.351237
 C         1.220319        -0.105214         0.285060
 C         1.929208         1.333196         0.272227
 O         3.430868         0.994803         0.033169
 C         3.346299        -0.414128        -0.029379
 C         2.355771        -1.088334         1.004402
 C         1.987520        -2.156908        -0.118647
 C         2.098158        -0.839456        -0.868884
 O         2.151106        -0.683354        -2.349600
 H        -0.642577         0.199016         1.241469
 H        -0.542953         0.525310        -0.459641
 H        -0.722972        -1.211645         0.251727
 H         1.667084         1.832682        -0.611718
 H         1.740980         1.860432         1.226106
 H         4.220734        -0.935162        -0.409229
 H         2.501109        -1.298054         2.015378
 H         2.765551        -2.895946        -0.285580
 H         1.063654        -2.623986        -0.008974
 H         2.574732         0.219677        -2.573547
