19
Iteration:  3443charge 0 multiplicity 1
 C        -0.139544        -0.293190         0.386434
 C         1.293242        -0.064385         0.221615
 C         1.940582         1.309929         0.268790
 O         3.342879         1.006142         0.145619
 C         3.307325        -0.404534         0.028253
 C         2.287847        -0.971158         0.899514
 C         2.031272        -2.132575        -0.084875
 C         2.125646        -0.847766        -0.947951
 O         2.119913        -0.757607        -2.390287
 H        -0.511861        -0.700339         1.269311
 H        -0.601504         0.745469         0.377790
 H        -0.497348        -0.758369        -0.497940
 H         1.627275         2.031063        -0.603807
 H         1.767038         1.840653         1.250263
 H         4.262201        -0.761541        -0.292769
 H         2.400235        -1.148629         1.999886
 H         2.821456        -2.921883        -0.232643
 H         1.082915        -2.564656         0.081579
 H         2.144749         0.249188        -2.624405
