19
Iteration:  2409charge 0 multiplicity 1
 C        -0.083696        -0.216735         0.376901
 C         1.329562        -0.018998         0.210127
 C         1.883226         1.330165         0.290156
 O         3.380820         1.025707         0.201885
 C         3.408381        -0.421094        -0.020293
 C         2.224465        -1.035172         0.943608
 C         1.960105        -2.091105        -0.186644
 C         2.209033        -0.843447        -0.943223
 O         2.048714        -0.819408        -2.379693
 H        -0.539446         0.591432         1.057325
 H        -0.590588        -0.364008        -0.542227
 H        -0.374450        -1.042658         0.966946
 H         1.527749         1.957724        -0.545523
 H         1.582111         1.625599         1.316327
 H         4.355993        -0.715233        -0.120336
 H         2.202590        -1.218613         2.028901
 H         2.613802        -2.983263        -0.367141
 H         0.927578        -2.385821        -0.066629
 H         2.308377        -0.062281        -2.856381
