19
Iteration:  3196
 C        -0.201698        -0.404666         0.263989
 C         1.330801        -0.046940         0.182402
 C         1.951914         1.334168         0.258502
 O         3.432789         1.040130         0.117373
 C         3.384051        -0.364796         0.066944
 C         2.256842        -1.014706         0.983178
 C         2.000585        -2.091032        -0.196001
 C         2.204971        -0.816616        -0.911908
 O         1.938656        -0.678591        -2.250175
 H        -0.616943         0.074832         1.272660
 H        -0.697836        -0.077614        -0.641835
 H        -0.410917        -1.631379         0.337838
 H         1.778441         2.036355        -0.643871
 H         1.826027         1.711689         1.215172
 H         4.366684        -0.838091        -0.075371
 H         2.368453        -1.339341         1.973085
 H         2.648598        -3.035887        -0.252289
 H         0.940867        -2.419089        -0.114528
 H         2.775418        -0.253441        -2.633657
