19
Iteration:  1416charge 0 multiplicity 1
 C        -0.059957        -0.064859         0.103856
 C         1.412043        -0.003684         0.121277
 C         2.061702         1.314189         0.406264
 O         3.463012         0.881408         0.184622
 C         3.323962        -0.492641        -0.014045
 C         2.287757        -1.014413         0.965318
 C         2.005096        -2.134464         0.019076
 C         2.167667        -0.851793        -0.931391
 O         1.694125        -0.699089        -2.348601
 H        -0.619477         0.343886         0.877847
 H        -0.459211         0.491353        -0.721589
 H        -0.368925        -1.142503         0.134129
 H         1.775951         2.190697        -0.174936
 H         1.877613         1.640963         1.422291
 H         4.420819        -0.922556        -0.121650
 H         2.270568        -1.087302         2.074700
 H         2.752978        -2.874092        -0.204759
 H         1.042658        -2.616921         0.215075
 H         2.460689        -0.820576        -2.846019
