19
Iteration:  2042charge 0 multiplicity 1
 C        -0.127417        -0.160978         0.516419
 C         1.346135        -0.106667         0.110479
 C         1.923268         1.317255         0.148731
 O         3.311640         1.040715         0.085619
 C         3.246826        -0.433039         0.046114
 C         2.249084        -1.093829         0.953201
 C         2.000652        -2.280455        -0.123212
 C         2.141984        -0.937106        -0.916687
 O         2.251307        -0.558990        -2.301531
 H        -0.311445        -0.061948         1.556019
 H        -0.508167         0.757068        -0.059630
 H        -0.642082        -1.143992         0.178275
 H         1.500032         1.844830        -0.772670
 H         1.758691         1.924554         1.054305
 H         4.235493        -0.626102        -0.242737
 H         2.330208        -1.150211         2.026780
 H         2.859531        -2.921296        -0.257371
 H         1.078104        -2.782365        -0.177438
 H         1.389530        -0.061853        -2.596978
