19
Iteration:  4442
 C        -0.237665        -0.247535         0.456162
 C         1.270527        -0.020143         0.216230
 C         1.896116         1.381657         0.216605
 O         3.345807         0.981985         0.076191
 C         3.334131        -0.352525        -0.013024
 C         2.343319        -1.048274         0.949400
 C         2.041344        -2.165337        -0.083852
 C         2.192142        -0.847703        -0.957361
 O         2.174491        -0.802610        -2.334469
 H        -0.822765        -1.080432        -0.193317
 H        -0.452474        -0.526629         1.518464
 H        -0.740077         0.635823         0.054327
 H         1.621001         2.052766        -0.655787
 H         1.626224         1.854034         1.139319
 H         4.378002        -0.836853        -0.141105
 H         2.350830        -0.939291         1.981205
 H         2.790720        -2.930835        -0.135849
 H         0.986350        -2.463677        -0.114797
 H         1.921451         0.106727        -2.656650
