19
Iteration:  1771charge 0 multiplicity 1
 C        -0.216486        -0.209889         0.116264
 C         1.353973        -0.095607         0.153929
 C         2.083631         1.315095         0.206821
 O         3.515007         1.003057         0.208907
 C         3.380701        -0.479561         0.051497
 C         2.215353        -1.076225         0.965572
 C         2.099164        -2.118486        -0.098674
 C         2.145404        -0.819886        -0.908608
 O         1.738031        -0.591351        -2.189514
 H        -0.703529         0.527736         0.863247
 H        -0.407186         0.000293        -0.904353
 H        -0.411446        -1.195812         0.502528
 H         1.913114         1.839183        -0.719135
 H         1.880179         1.685759         1.213954
 H         4.365182        -1.038245         0.101314
 H         2.123877        -1.192783         2.063422
 H         2.968469        -2.737516        -0.320927
 H         1.135916        -2.608405        -0.096007
 H         2.393709        -0.895539        -2.772484
