19
Iteration:  2424charge 0 multiplicity 1
 C        -0.189869        -0.264018         0.383987
 C         1.334761        -0.056745         0.104610
 C         1.985649         1.331481         0.354447
 O         3.417010         1.043165         0.215255
 C         3.349071        -0.374305         0.053666
 C         2.304446        -0.988826         0.899170
 C         1.958280        -2.101947        -0.178294
 C         2.113567        -0.782823        -0.994145
 O         2.050487        -0.896418        -2.353705
 H        -0.514247         0.550153         0.913150
 H        -0.818024        -0.199999        -0.578634
 H        -0.374587        -1.310699         0.779854
 H         1.691661         2.168042        -0.330915
 H         1.783322         1.810496         1.285836
 H         4.345096        -0.983665         0.004359
 H         2.357842        -1.026729         1.986392
 H         2.812296        -2.844992        -0.336952
 H         0.976899        -2.607139        -0.249769
 H         2.046614         0.087222        -2.664482
