19
Iteration:   851charge 0 multiplicity 1
 C        -0.173434         0.002851         0.301962
 C         1.326718         0.029548         0.253383
 C         2.124231         1.335358         0.314650
 O         3.499766         0.915707         0.137514
 C         3.330511        -0.476544        -0.024695
 C         2.277624        -1.076453         0.997653
 C         1.889900        -2.164294        -0.185747
 C         2.032099        -0.863555        -0.910196
 O         2.025242        -0.815838        -2.320588
 H        -0.702707         0.340940         1.279060
 H        -0.732083         0.695929        -0.414869
 H        -0.561267        -0.968651         0.011132
 H         1.888947         1.882943        -0.613922
 H         1.914115         1.903345         1.186252
 H         4.228189        -0.958899        -0.342359
 H         2.395141        -1.348491         2.018792
 H         2.533968        -3.012359        -0.460022
 H         0.902801        -2.625585        -0.038383
 H         2.101905         0.190527        -2.580958
