19
Iteration:  4105charge 0 multiplicity 1
 C        -0.163437        -0.351528         0.536734
 C         1.333628        -0.038327         0.168796
 C         1.914841         1.315990         0.368303
 O         3.311159         1.065454         0.158905
 C         3.303618        -0.384707        -0.028767
 C         2.297618        -1.126627         0.866829
 C         1.932739        -2.130161        -0.228203
 C         2.129265        -0.778429        -0.974849
 O         2.229801        -0.697958        -2.391979
 H        -0.482068        -0.963132        -0.322302
 H        -0.219120        -0.797103         1.630942
 H        -0.866659         0.512218         0.307359
 H         1.462648         2.106651        -0.152915
 H         1.813103         1.504544         1.403226
 H         4.454429        -0.666774        -0.152534
 H         2.221573        -1.253158         1.893178
 H         2.629788        -3.008458        -0.510309
 H         0.809418        -2.412815        -0.137389
 H         2.600201         0.174418        -2.666067
