19
Iteration:  1011charge 0 multiplicity 1
 C        -0.283017         0.022173         0.459048
 C         1.280698        -0.030058         0.217769
 C         2.112699         1.326167         0.217756
 O         3.484846         0.872736         0.083960
 C         3.277827        -0.589232         0.020104
 C         2.236200        -1.138508         0.937369
 C         1.898718        -2.177685        -0.233368
 C         2.117318        -0.856283        -0.941581
 O         2.127179        -0.593152        -2.271378
 H        -0.816272        -0.191404        -0.438333
 H        -0.453182        -0.729101         1.188840
 H        -0.588746         0.974917         1.005353
 H         1.933153         1.985159        -0.592048
 H         2.044167         1.869170         1.183413
 H         4.054027        -1.284246        -0.274373
 H         2.263624        -1.354375         2.028555
 H         2.666378        -2.905330        -0.402799
 H         0.932320        -2.703897        -0.224877
 H         2.544696         0.330850        -2.526960
