19
Iteration:  2073charge 0 multiplicity 1
 C        -0.307681        -0.244630         0.381418
 C         1.288750        -0.058671         0.287733
 C         1.979110         1.318766         0.301326
 O         3.363891         0.985817         0.027526
 C         3.334636        -0.430265        -0.018270
 C         2.328180        -1.029889         0.959818
 C         1.974429        -2.122704        -0.141476
 C         2.213186        -0.822624        -0.925393
 O         2.205887        -0.672489        -2.307391
 H        -0.687656        -0.358152         1.361932
 H        -0.804419         0.644726        -0.182002
 H        -0.496255        -1.242126        -0.221808
 H         1.447279         1.811748        -0.606593
 H         1.923229         1.925850         1.327280
 H         4.316978        -0.767721        -0.320059
 H         2.569283        -1.231216         2.100617
 H         2.691194        -2.888159        -0.304165
 H         0.949602        -2.499299        -0.199447
 H         1.313811        -0.575994        -2.544153
