19
Iteration:  1989
 C        -0.122415        -0.170930         0.262667
 C         1.364746        -0.007070         0.246638
 C         1.966298         1.382171         0.350799
 O         3.393655         1.044420         0.202983
 C         3.340344        -0.390404        -0.031529
 C         2.280380        -1.129395         0.925780
 C         2.010257        -2.184080        -0.202527
 C         2.114659        -0.822758        -0.898994
 O         2.032393        -0.727418        -2.306401
 H        -0.623591         0.406416         1.071738
 H        -0.580638        -0.020091        -0.688794
 H        -0.432551        -1.226638         0.290146
 H         1.556073         1.994691        -0.400986
 H         1.838387         1.955787         1.201047
 H         4.361273        -0.684866         0.035200
 H         2.429297        -1.477163         1.870042
 H         2.813781        -2.890082        -0.612853
 H         1.045045        -2.670410        -0.172312
 H         1.385600        -1.431219        -2.690689
