19
Iteration:  4852charge 0 multiplicity 1
 C        -0.235954        -0.111438         0.307187
 C         1.273192        -0.074108         0.225376
 C         1.885529         1.406224         0.108279
 O         3.344079         1.058092        -0.084203
 C         3.285992        -0.333965         0.006682
 C         2.323172        -0.972706         1.044986
 C         2.163926        -2.158183         0.019342
 C         2.111671        -0.952068        -0.839772
 O         2.137476        -0.970596        -2.223025
 H        -0.701348        -0.999618        -0.172621
 H        -0.658452        -0.208917         1.288142
 H        -0.536647         0.836866        -0.050754
 H         1.501093         1.882355        -0.809935
 H         1.754113         2.014755         1.008287
 H         4.291930        -0.634031        -0.171076
 H         2.519179        -1.048173         2.121243
 H         2.971222        -3.011198        -0.192442
 H         1.157702        -2.685071         0.077909
 H         2.361403        -0.051592        -2.573634
