19
Iteration:  4174charge 0 multiplicity 1
 C        -0.185639        -0.145583         0.253353
 C         1.311553        -0.232287         0.234839
 C         1.896303         1.251048         0.296297
 O         3.277897         1.018323         0.178169
 C         3.362525        -0.330893        -0.033486
 C         2.371220        -1.135155         0.951622
 C         2.149509        -2.213589        -0.182588
 C         2.199969        -0.813236        -0.944883
 O         1.937200        -0.599871        -2.241725
 H        -0.319734         0.510075        -0.724121
 H        -0.654529        -1.157776         0.275638
 H        -0.575810         0.463522         1.101638
 H         1.543673         2.011774        -0.456139
 H         1.773739         1.612063         1.279032
 H         4.384331        -0.707595        -0.272123
 H         2.519735        -1.268303         2.063131
 H         3.012186        -2.911623        -0.364802
 H         1.258568        -2.778525        -0.091204
 H         2.397660         0.114264        -2.615606
