19
Iteration:  3349charge 0 multiplicity 1
 C        -0.162842        -0.107037         0.206487
 C         1.338696        -0.170056         0.214175
 C         1.895327         1.263248         0.225203
 O         3.343132         1.073477         0.137787
 C         3.407706        -0.369784         0.063672
 C         2.309877        -1.098020         1.002937
 C         2.148679        -2.230826        -0.145737
 C         2.226005        -0.829448        -0.896118
 O         1.858040        -0.680317        -2.271223
 H        -0.622544        -0.379752         1.197151
 H        -0.609367         0.815185         0.247195
 H        -0.674659        -0.738971        -0.626304
 H         1.506090         1.774081        -0.694127
 H         1.523761         1.874285         1.262495
 H         4.440510        -0.793877        -0.155700
 H         2.458466        -1.296496         2.032946
 H         3.063004        -2.851750        -0.208960
 H         1.202739        -2.745897        -0.149562
 H         2.581625        -0.294220        -2.738049
