19
Iteration:  4855
 C        -0.224300        -0.090674         0.281066
 C         1.289150        -0.067371         0.236995
 C         1.874353         1.384779         0.130532
 O         3.333375         1.061310        -0.074411
 C         3.283666        -0.325280         0.016908
 C         2.330167        -0.959093         1.036909
 C         2.185909        -2.193759         0.023546
 C         2.095577        -0.972753        -0.860543
 O         2.127099        -0.969749        -2.217488
 H        -0.685414        -1.005212        -0.172121
 H        -0.654071        -0.169715         1.308945
 H        -0.565898         0.898154        -0.088950
 H         1.523153         1.901768        -0.875113
 H         1.774319         2.060230         1.022151
 H         4.362242        -0.671258        -0.238449
 H         2.474415        -1.042867         2.059480
 H         2.990946        -2.869322        -0.200031
 H         1.159312        -2.624121         0.084728
 H         2.294137        -0.114282        -2.539418
