19
Iteration:   278
 C        -0.162903         0.139511         0.371690
 C         1.357318        -0.002103         0.242151
 C         2.099872         1.300089         0.253127
 O         3.506655         0.824694         0.124010
 C         3.257856        -0.631481        -0.008983
 C         2.289107        -1.027639         0.919538
 C         1.694702        -2.148783         0.027553
 C         2.102979        -0.866195        -1.002275
 O         2.114997        -0.647113        -2.412173
 H        -0.439032         0.982100         1.020233
 H        -0.554921         0.436618        -0.673165
 H        -0.702037        -0.785332         0.750395
 H         1.901036         2.048587        -0.468864
 H         2.081224         1.861835         1.230006
 H         4.299861        -1.240100        -0.091652
 H         2.728663        -1.301805         1.987838
 H         2.313590        -3.053406         0.088685
 H         0.574776        -2.282589        -0.010374
 H         2.242229        -1.519579        -2.785060
