19
Iteration:  1217
 C        -0.212022         0.053101         0.135732
 C         1.407415        -0.018640         0.299587
 C         2.100662         1.289262         0.276549
 O         3.485746         0.922061         0.200078
 C         3.380471        -0.504225        -0.099730
 C         2.345213        -1.151786         0.967503
 C         1.937372        -2.136879        -0.099537
 C         2.083279        -0.804589        -0.852311
 O         1.852970        -0.776954        -2.272130
 H        -0.505962         1.062974         0.238525
 H        -0.653142        -0.380904        -0.905248
 H        -0.863306        -0.502849         0.880466
 H         1.779494         1.990201        -0.591205
 H         2.035014         1.755103         1.267201
 H         4.268392        -1.069587        -0.161592
 H         2.412713        -1.383737         2.018487
 H         2.524492        -3.018682        -0.390327
 H         0.905850        -2.511995        -0.099028
 H         2.225319         0.164013        -2.554258
