19
Iteration:  3797
 C        -0.231576        -0.217893         0.454571
 C         1.296677        -0.170110         0.181962
 C         1.946983         1.233377         0.480338
 O         3.376526         1.000945         0.236793
 C         3.305330        -0.353189        -0.099572
 C         2.296274        -1.111930         0.829476
 C         2.117120        -2.126151        -0.310057
 C         2.096852        -0.769674        -0.983617
 O         2.102349        -0.630041        -2.333132
 H        -0.550258         0.202875         1.420569
 H        -0.674170         0.277946        -0.510561
 H        -0.781341        -1.247982         0.437700
 H         1.544913         1.952605        -0.126665
 H         1.784101         1.467234         1.552114
 H         4.201123        -0.816561        -0.327187
 H         2.304748        -1.311282         1.935705
 H         2.962513        -2.747424        -0.456140
 H         1.118224        -2.653606        -0.471823
 H         2.552956         0.278039        -2.475133
