19
Iteration:  4360charge 0 multiplicity 1
 C        -0.153961        -0.377194         0.127338
 C         1.380506        -0.050131         0.253315
 C         1.981820         1.332782         0.367518
 O         3.354847         1.040268         0.171721
 C         3.331520        -0.391467        -0.072928
 C         2.356333        -1.000361         0.975084
 C         2.070846        -2.059574        -0.091491
 C         2.171881        -0.866016        -0.928864
 O         1.864362        -0.731291        -2.268626
 H        -0.544883        -0.876305         0.964413
 H        -0.703950         0.634753         0.123567
 H        -0.569135        -0.817230        -0.821195
 H         1.717182         1.992983        -0.457474
 H         1.771169         1.853592         1.395040
 H         4.314148        -0.753134        -0.207348
 H         2.452457        -1.121108         2.145575
 H         2.890045        -2.901145        -0.315177
 H         1.091858        -2.615501         0.040286
 H         2.456411        -0.246656        -2.796118
