19
Iteration:  1709
 C        -0.193990        -0.022227         0.381795
 C         1.326016        -0.063103         0.224980
 C         1.980361         1.316076         0.336856
 O         3.303635         1.017957         0.062329
 C         3.340355        -0.497313        -0.047630
 C         2.300160        -1.124663         0.972754
 C         1.961015        -2.153095        -0.130501
 C         2.149235        -0.876416        -0.939354
 O         2.210567        -0.768007        -2.353034
 H        -0.457807         0.671349         1.261363
 H        -0.731348         0.325694        -0.570685
 H        -0.666679        -0.993175         0.543331
 H         1.507274         2.093162        -0.370640
 H         1.859468         1.637341         1.414767
 H         4.367476        -0.904644         0.031644
 H         2.315143        -1.141921         2.023639
 H         2.653533        -2.978655        -0.383074
 H         0.918203        -2.495621        -0.212812
 H         1.713854        -0.021723        -2.602651
