19
Iteration:  2328
 C        -0.176720        -0.185664         0.202382
 C         1.334547        -0.084646         0.169864
 C         1.964484         1.273100         0.294540
 O         3.392548         1.017862         0.039895
 C         3.415695        -0.362070         0.023642
 C         2.382429        -1.102514         1.006238
 C         1.965104        -2.155958        -0.079156
 C         2.138891        -0.889581        -0.895155
 O         1.941646        -0.659767        -2.242234
 H        -0.689731         0.230244         1.142651
 H        -0.737073         0.412752        -0.579893
 H        -0.347770        -1.300030         0.070854
 H         1.452901         1.916745        -0.444632
 H         1.577128         1.709660         1.290901
 H         4.537278        -0.734460        -0.180080
 H         2.302713        -1.144689         2.106018
 H         2.711966        -2.915517        -0.160769
 H         0.985193        -2.642427        -0.108701
 H         2.622070        -0.025245        -2.492009
