19
Iteration:  2301charge 0 multiplicity 1
 C        -0.195436        -0.202825         0.278572
 C         1.326065        -0.021915         0.277600
 C         1.953434         1.470241         0.340278
 O         3.430698         1.001858         0.266285
 C         3.334332        -0.391405        -0.083346
 C         2.354040        -1.017963         0.931318
 C         2.021863        -2.145767        -0.132756
 C         2.122721        -0.899070        -0.994218
 O         1.971291        -0.882156        -2.354316
 H        -0.756471        -0.265488         1.202739
 H        -0.579433         0.645231        -0.349168
 H        -0.367364        -1.175947        -0.210560
 H         1.565028         1.970595        -0.590053
 H         1.772278         2.005832         1.240256
 H         4.255016        -0.823671        -0.133358
 H         2.466820        -1.006431         2.035471
 H         2.856972        -2.898864        -0.342720
 H         1.059458        -2.703347        -0.133195
 H         2.346143        -0.015255        -2.639459
