19
Iteration:  1982
 C        -0.058811        -0.203172         0.223038
 C         1.378378         0.016262         0.217460
 C         1.968825         1.365088         0.390398
 O         3.351503         1.026335         0.178817
 C         3.346969        -0.366268        -0.006019
 C         2.295129        -1.171502         0.895576
 C         1.964902        -2.138069        -0.157295
 C         2.137806        -0.830168        -0.925301
 O         1.993934        -0.714863        -2.274427
 H        -0.747116         0.465562         0.880217
 H        -0.410517         0.081248        -0.807523
 H        -0.435612        -1.194313         0.300732
 H         1.476461         2.050596        -0.412031
 H         1.954478         1.900036         1.439921
 H         4.384463        -0.731036        -0.237487
 H         2.502347        -1.420543         1.981766
 H         2.834532        -2.780580        -0.476563
 H         1.011365        -2.701134        -0.207851
 H         1.561335        -1.561743        -2.504093
