19
Iteration:  4739charge 0 multiplicity 1
 C        -0.175116        -0.117789         0.125769
 C         1.322642        -0.122886         0.132023
 C         1.929166         1.318688         0.202644
 O         3.324989         1.104821         0.045614
 C         3.338584        -0.362063        -0.031223
 C         2.362641        -0.916349         1.011657
 C         2.167936        -2.178038         0.088470
 C         2.190771        -0.908260        -0.842585
 O         1.908002        -0.969375        -2.228876
 H        -0.682582        -1.003800         0.351555
 H        -0.601761         0.623841         0.783939
 H        -0.319573         0.211031        -0.904988
 H         1.502865         2.048606        -0.454287
 H         1.719773         1.589947         1.261809
 H         4.402110        -0.688946        -0.137219
 H         2.537674        -0.811824         2.138337
 H         3.165946        -2.816894         0.023644
 H         1.167793        -2.668337         0.206275
 H         1.791943        -0.071532        -2.503340
