19
Iteration:  4787
 C        -0.253202        -0.179187         0.393872
 C         1.268033        -0.041672         0.159026
 C         1.873562         1.337380         0.073154
 O         3.356274         1.024218         0.006600
 C         3.350408        -0.318066        -0.043884
 C         2.301800        -0.923421         1.013632
 C         2.089563        -2.131929         0.032077
 C         2.180131        -0.920430        -0.856311
 O         2.095410        -0.917565        -2.269465
 H        -0.580222        -1.143865        -0.082506
 H        -0.474654        -0.291255         1.463845
 H        -0.802481         0.651978         0.004868
 H         1.613713         1.723448        -1.005906
 H         1.802857         2.144576         0.829754
 H         4.289942        -0.812643        -0.072469
 H         2.284036        -0.985657         2.108394
 H         2.928336        -2.835961         0.048292
 H         1.071822        -2.403110         0.203794
 H         2.968007        -0.481675        -2.479398
