19
Iteration:  2324charge 0 multiplicity 1
 C        -0.178198        -0.212469         0.194912
 C         1.363501        -0.059836         0.189926
 C         1.981604         1.250838         0.300350
 O         3.362722         1.000481         0.077947
 C         3.403415        -0.370283        -0.001423
 C         2.369248        -1.078679         0.985909
 C         1.959780        -2.118466        -0.080116
 C         2.139636        -0.814818        -0.890662
 O         1.944023        -0.708608        -2.247256
 H        -0.575405         0.066093         1.111831
 H        -0.632872         0.512642        -0.571901
 H        -0.467229        -1.315036         0.080068
 H         1.555565         1.852994        -0.551296
 H         1.621403         1.622487         1.243812
 H         4.366457        -0.696263        -0.254006
 H         2.454272        -1.182889         2.048954
 H         2.736116        -2.953905        -0.134048
 H         0.976305        -2.556804        -0.040842
 H         2.642297        -0.025870        -2.532999
