19
Iteration:  4217
 C        -0.157225        -0.393727         0.081080
 C         1.324825        -0.003783         0.219654
 C         2.018293         1.318883         0.449912
 O         3.377124         1.007094         0.199594
 C         3.387530        -0.377154        -0.054660
 C         2.360626        -1.034166         0.935178
 C         2.077069        -2.079080        -0.150452
 C         2.130936        -0.801773        -0.870471
 O         1.820310        -0.738029        -2.276779
 H        -0.622908         0.654691        -0.147078
 H        -0.516266        -1.039067        -0.782464
 H        -0.656671        -0.811196         0.987133
 H         1.756295         2.097343        -0.203474
 H         1.778989         1.537353         1.433234
 H         4.459314        -0.664402        -0.219273
 H         2.548593        -1.272984         2.014704
 H         3.068471        -2.703159        -0.301110
 H         1.146381        -2.589710        -0.270719
 H         2.221689         0.084423        -2.517283
