19
Iteration:  3503
 C        -0.122532        -0.118291         0.129544
 C         1.337031        -0.087424         0.269741
 C         1.961755         1.287134         0.348296
 O         3.301412         1.037851         0.214551
 C         3.375373        -0.347374        -0.040942
 C         2.315130        -1.084635         0.928690
 C         2.161297        -2.202556        -0.115726
 C         2.205004        -0.831891        -0.914588
 O         1.876353        -0.793779        -2.311476
 H        -0.681445        -0.042843         1.169197
 H        -0.493980         0.672780        -0.548448
 H        -0.492098        -1.207845        -0.173543
 H         1.517308         1.960021        -0.342585
 H         1.767990         1.761530         1.232259
 H         4.484036        -0.570544        -0.197962
 H         2.488222        -1.297212         1.980438
 H         3.019566        -2.888254        -0.265410
 H         1.112994        -2.685379         0.087804
 H         1.689118         0.157419        -2.572456
