19
Iteration:  2231
 C        -0.261365        -0.185443         0.340541
 C         1.245772        -0.104550         0.273870
 C         1.929105         1.335095         0.287279
 O         3.430019         1.013088         0.038394
 C         3.321063        -0.402895        -0.027628
 C         2.353141        -1.127102         0.992039
 C         2.003608        -2.151520        -0.100658
 C         2.101928        -0.846972        -0.881569
 O         2.155045        -0.690513        -2.364852
 H        -0.673562         0.278107         1.340626
 H        -0.575216         0.574885        -0.331376
 H        -0.747952        -1.130886         0.241541
 H         1.672735         1.836457        -0.674784
 H         1.710478         1.842912         1.248765
 H         4.306867        -0.935452        -0.407113
 H         2.438376        -1.314489         2.075798
 H         2.769011        -2.912687        -0.264732
 H         1.000099        -2.619908         0.046981
 H         2.478020         0.166562        -2.585859
