19
Iteration:  3240charge 0 multiplicity 1
 C        -0.302040        -0.029728         0.446161
 C         1.286128        -0.153551         0.233220
 C         1.809072         1.260659         0.312216
 O         3.310275         1.017164         0.140952
 C         3.309369        -0.438426        -0.047424
 C         2.389748        -1.095090         0.925863
 C         2.139227        -2.188223        -0.146116
 C         2.181714        -0.828307        -0.955305
 O         2.142455        -0.716799        -2.376479
 H        -0.500572         0.906434         1.111971
 H        -0.667307         0.094497        -0.556008
 H        -0.716496        -1.096966         0.813197
 H         1.461147         1.812918        -0.598849
 H         1.670672         1.653137         1.242025
 H         4.354595        -0.741120        -0.178404
 H         2.477504        -1.154809         1.962335
 H         3.009278        -2.831050        -0.416738
 H         1.186734        -2.695553        -0.242602
 H         2.774377         0.062820        -2.517025
