19
Iteration:  1053charge 0 multiplicity 1
 C        -0.145829        -0.099626         0.015808
 C         1.384508        -0.063537         0.196412
 C         2.177968         1.339335         0.373720
 O         3.518663         0.906641         0.165130
 C         3.399668        -0.578893        -0.000410
 C         2.350971        -1.168350         0.942784
 C         1.824602        -2.154867        -0.090865
 C         2.111897        -0.837042        -0.893987
 O         1.749846        -0.522770        -2.190922
 H        -0.369648        -0.312039        -0.973235
 H        -0.776618        -0.724413         0.770316
 H        -0.517649         0.921877         0.257274
 H         1.714845         1.977022        -0.423530
 H         1.934774         1.852723         1.300895
 H         4.423505        -0.899951        -0.148325
 H         2.520946        -1.288956         2.043398
 H         2.247846        -3.139605        -0.231121
 H         0.754752        -2.375026        -0.039749
 H         2.578961        -0.250679        -2.582290
