19
Iteration:  2285charge 0 multiplicity 1
 C        -0.224615        -0.137875         0.322044
 C         1.269124        -0.006235         0.186110
 C         2.058458         1.304369         0.325697
 O         3.387955         1.072695         0.255875
 C         3.367591        -0.346885         0.030707
 C         2.247081        -1.049634         0.887927
 C         2.090755        -2.161466        -0.150583
 C         2.141370        -0.827857        -0.933456
 O         1.976940        -0.942815        -2.417087
 H        -0.452277        -0.105433         1.446113
 H        -0.930484         0.601260        -0.016311
 H        -0.513786        -1.024598        -0.245941
 H         1.842608         2.127079        -0.352897
 H         1.827273         1.893768         1.280539
 H         4.470989        -0.727205        -0.214845
 H         2.427473        -1.348530         1.929480
 H         2.952085        -2.791673        -0.220870
 H         1.142597        -2.709528        -0.090330
 H         2.050591        -0.142924        -2.881054
