19
Iteration:  4661charge 0 multiplicity 1
 C        -0.253843        -0.146689         0.415612
 C         1.312943        -0.129185         0.195271
 C         1.919506         1.311818         0.088099
 O         3.304842         1.123770         0.030599
 C         3.305313        -0.446709        -0.000709
 C         2.342413        -0.959149         0.998999
 C         2.090631        -2.159553         0.035053
 C         2.183123        -0.956310        -0.884384
 O         2.082709        -0.788317        -2.335768
 H        -0.517062        -0.324027         1.429845
 H        -0.593301         0.872603         0.242646
 H        -0.841736        -0.859364        -0.157338
 H         1.592044         1.749481        -0.861085
 H         1.549972         2.011796         0.870456
 H         4.470851        -0.629656        -0.119250
 H         2.503341        -1.059929         2.036664
 H         2.867984        -3.017747        -0.036846
 H         1.148453        -2.800952        -0.042973
 H         2.868871        -0.332633        -2.582024
