19
Iteration:  1030charge 0 multiplicity 1
 C        -0.058175        -0.019560         0.263527
 C         1.373617        -0.102901         0.283552
 C         2.065973         1.248252         0.244166
 O         3.427397         0.840404         0.119388
 C         3.413271        -0.515778        -0.083350
 C         2.233651        -1.123850         0.955807
 C         1.776402        -2.150367        -0.108089
 C         2.109909        -0.834085        -0.882849
 O         1.977133        -0.516307        -2.274175
 H        -0.359051        -0.261932        -0.725064
 H        -0.583626        -0.715063         1.086318
 H        -0.429053         0.950170         0.514743
 H         1.701395         1.848687        -0.656989
 H         1.816295         1.873873         1.100481
 H         4.370089        -1.075208        -0.052960
 H         2.410761        -1.383406         2.037285
 H         2.320075        -3.077558        -0.398306
 H         0.737590        -2.524646        -0.108233
 H         2.621901         0.304005        -2.316848
