19
Iteration:   157charge 0 multiplicity 1
 C        -0.171550         0.106597         0.383866
 C         1.343342        -0.036675         0.097437
 C         2.227519         1.290710         0.180066
 O         3.545994         0.826022         0.002909
 C         3.240697        -0.556971         0.008084
 C         2.107727        -1.042735         0.999365
 C         1.873722        -2.199877        -0.077058
 C         2.076077        -0.912166        -0.864729
 O         2.003104        -0.579365        -2.220854
 H        -0.345848         0.057834         1.477171
 H        -0.682811         1.066405        -0.021753
 H        -0.699736        -0.717867        -0.016333
 H         1.938261         1.833451        -0.637934
 H         2.179850         1.923386         1.054524
 H         4.230912        -1.199335         0.062599
 H         2.115172        -1.155501         2.131360
 H         2.663624        -2.961850        -0.210552
 H         0.804929        -2.453255        -0.113996
 H         2.694393        -0.978822        -2.888768
