19
Iteration:  1871
 C        -0.114577        -0.193140         0.484634
 C         1.317616        -0.011909         0.121133
 C         1.946849         1.298463         0.189324
 O         3.337744         0.975855         0.205004
 C         3.319498        -0.490163        -0.032394
 C         2.201796        -0.967624         0.890665
 C         1.962539        -2.144043        -0.111426
 C         2.100769        -0.859989        -0.939962
 O         2.238280        -0.736494        -2.350325
 H        -0.063011        -0.036907         1.629612
 H        -0.661353         0.535532        -0.028728
 H        -0.472519        -1.118126         0.194361
 H         1.609388         2.023326        -0.579983
 H         1.697889         1.829436         1.186440
 H         4.288507        -0.960544        -0.141749
 H         2.207553        -1.141249         1.904381
 H         2.672307        -2.975763        -0.092784
 H         0.944377        -2.454647        -0.121463
 H         1.807832         0.035209        -2.776365
