19
Iteration:  1695charge 0 multiplicity 1
 C        -0.161899        -0.008875         0.443779
 C         1.288218        -0.032023         0.231073
 C         1.985713         1.294606         0.424900
 O         3.350099         0.990922        -0.009044
 C         3.234077        -0.438907         0.037151
 C         2.145831        -1.012846         0.906226
 C         2.014188        -2.232501        -0.197581
 C         2.186041        -0.903094        -0.985308
 O         2.257580        -0.802627        -2.360375
 H        -0.494236         0.616027         1.499980
 H        -0.581219         0.689949        -0.349674
 H        -0.623447        -1.016902         0.483299
 H         1.563020         2.185110        -0.235017
 H         1.927850         1.773989         1.462579
 H         4.273190        -0.830807        -0.180892
 H         2.310307        -1.370320         1.952018
 H         2.920748        -2.826678        -0.204550
 H         1.194811        -2.918972        -0.051855
 H         1.541771        -0.168819        -2.722487
