19
Iteration:  2600charge 0 multiplicity 1
 C        -0.290679        -0.125349         0.199726
 C         1.316127        -0.143973         0.224061
 C         1.924158         1.277899         0.369745
 O         3.434460         1.088533         0.111277
 C         3.356641        -0.354752        -0.115781
 C         2.251161        -1.169745         0.978792
 C         2.125248        -2.202770        -0.083713
 C         2.183950        -0.831041        -0.888997
 O         2.002426        -0.608935        -2.284291
 H        -0.367380         0.530859         1.031285
 H        -0.664521         0.368750        -0.805982
 H        -0.833970        -1.091902         0.525551
 H         1.483984         1.959677        -0.456759
 H         1.907035         1.706431         1.363200
 H         4.429228        -0.768801        -0.274080
 H         2.212521        -1.283490         2.066347
 H         3.143015        -2.724762        -0.203292
 H         1.289076        -2.990412        -0.124540
 H         2.066243        -1.622754        -2.483867
