19
Iteration:  1288
 C        -0.163215        -0.042474         0.253030
 C         1.322156        -0.044784         0.262479
 C         2.118681         1.391083         0.251465
 O         3.459270         0.915629         0.164733
 C         3.339879        -0.536111        -0.087661
 C         2.276543        -1.104292         0.972323
 C         1.874478        -2.122414        -0.105674
 C         2.144310        -0.826318        -0.934032
 O         1.981085        -0.677065        -2.258211
 H        -0.574858         0.449616         1.252666
 H        -0.555750         0.498650        -0.565387
 H        -0.613811        -1.068594         0.007339
 H         1.855978         2.046173        -0.593954
 H         2.042195         1.829484         1.275816
 H         4.420295        -0.874795        -0.180892
 H         2.532963        -1.158548         2.057081
 H         2.525489        -2.960850        -0.456483
 H         0.832923        -2.447089         0.078853
 H         1.593938        -1.555311        -2.642877
