19
Iteration:  4102charge 0 multiplicity 1
 C        -0.161701        -0.342378         0.515677
 C         1.324233        -0.066419         0.172718
 C         1.926992         1.314553         0.396824
 O         3.307048         1.076618         0.156985
 C         3.316306        -0.359242        -0.044682
 C         2.296175        -1.138904         0.851661
 C         1.955806        -2.144838        -0.219123
 C         2.122900        -0.776184        -0.975303
 O         2.223169        -0.700181        -2.392165
 H        -0.379155        -1.053206        -0.292182
 H        -0.297732        -0.683045         1.585268
 H        -0.821328         0.582583         0.341560
 H         1.532778         2.100667        -0.240517
 H         1.715088         1.582654         1.492015
 H         4.307257        -0.791528        -0.183856
 H         2.213441        -1.230867         2.003791
 H         2.566675        -3.009947        -0.517068
 H         0.794513        -2.357676        -0.143287
 H         2.575745         0.148667        -2.587160
