19
Iteration:  4313charge 0 multiplicity 1
 C        -0.162086        -0.216577         0.466968
 C         1.254856        -0.133105         0.212463
 C         1.872715         1.281744         0.226647
 O         3.276502         0.987697         0.085818
 C         3.330680        -0.392708        -0.028672
 C         2.268545        -1.068656         0.916380
 C         2.103044        -2.186202        -0.142111
 C         2.150164        -0.820512        -0.926582
 O         2.134449        -0.605282        -2.306375
 H        -0.389977         0.098449         1.634382
 H        -0.782005         0.525966        -0.120059
 H        -0.702939        -1.162909         0.192782
 H         1.549012         1.904608        -0.658839
 H         1.885088         1.850968         1.256694
 H         4.389261        -0.796136        -0.132661
 H         2.537338        -1.170835         1.906937
 H         2.998320        -2.890074        -0.186933
 H         1.199205        -2.718004        -0.361044
 H         2.973791        -0.179288        -2.630372
