19
Iteration:  2158
 C        -0.144205        -0.150415         0.214441
 C         1.354601        -0.085354         0.188222
 C         1.946568         1.358697         0.235558
 O         3.337432         0.932083         0.275290
 C         3.332766        -0.423974        -0.082484
 C         2.365713        -1.086572         0.931423
 C         2.100659        -2.158252        -0.127974
 C         2.140373        -0.805905        -0.924734
 O         1.909075        -0.625099        -2.219061
 H        -0.550445         0.684281         0.839904
 H        -0.586765         0.020087        -0.785599
 H        -0.576872        -0.958191         0.745594
 H         1.536620         1.963540        -0.615740
 H         1.850766         1.768272         1.211123
 H         4.336626        -0.787887        -0.355483
 H         2.549871        -1.286195         2.087415
 H         2.956650        -2.846873        -0.303455
 H         1.077297        -2.721098        -0.135576
 H         2.354317        -1.371233        -2.717510
