19
Iteration:   617charge 0 multiplicity 1
 C        -0.156592        -0.026214         0.445518
 C         1.388446        -0.031594         0.282113
 C         2.053825         1.307488         0.098347
 O         3.504433         0.940224         0.087628
 C         3.367805        -0.582765         0.024132
 C         2.285298        -1.131721         1.010911
 C         1.704633        -2.136782        -0.134271
 C         2.076230        -0.837830        -0.890662
 O         2.058892        -0.591461        -2.341451
 H        -0.443615         0.711996         1.214362
 H        -0.678198         0.304917        -0.462570
 H        -0.546296        -1.120284         0.660261
 H         1.964111         1.730959        -0.895490
 H         1.991065         2.046559         0.796790
 H         4.302521        -0.973587        -0.142660
 H         2.235464        -1.319503         2.055515
 H         2.132155        -3.082248        -0.449101
 H         0.681502        -2.256294         0.036778
 H         2.770738        -1.196659        -2.707597
