19
Iteration:  1156
 C        -0.258574        -0.048019         0.543672
 C         1.238383         0.060878         0.264895
 C         2.140958         1.333098         0.204357
 O         3.505036         0.872529         0.056483
 C         3.267153        -0.598418        -0.042939
 C         2.171052        -1.033647         0.891605
 C         1.820866        -2.196918        -0.161110
 C         2.093792        -0.843708        -0.967064
 O         2.301104        -0.630913        -2.316990
 H        -0.907393         0.927376         0.472401
 H        -0.694486        -0.845742         0.066352
 H        -0.128050        -0.368309         1.622066
 H         1.876331         1.959631        -0.637880
 H         1.967809         1.922316         1.145467
 H         4.223333        -1.210172         0.177052
 H         2.256883        -1.112184         1.989031
 H         2.644891        -2.872724        -0.399544
 H         0.814290        -2.615975        -0.231570
 H         1.433083        -0.580315        -2.767526
