19
Iteration:  3174charge 0 multiplicity 1
 C        -0.135999        -0.265524         0.173599
 C         1.331377        -0.059623         0.242636
 C         1.924333         1.329290         0.297852
 O         3.331808         1.020998         0.117485
 C         3.376066        -0.430973         0.000506
 C         2.325584        -1.084281         0.986012
 C         2.083934        -2.168761        -0.059362
 C         2.150164        -0.812230        -0.891821
 O         1.920452        -0.644770        -2.272645
 H        -0.695889        -0.043027         1.189464
 H        -0.491679         0.343317        -0.656997
 H        -0.431562        -1.406368        -0.156218
 H         1.593785         1.858171        -0.715156
 H         1.821059         1.942567         1.168868
 H         4.356763        -0.878610        -0.135448
 H         2.471484        -1.015465         2.032378
 H         2.953774        -2.875851        -0.336091
 H         1.150779        -2.735012        -0.135894
 H         2.616970        -0.152015        -2.682010
