19
Iteration:  1362charge 0 multiplicity 1
 C        -0.129531         0.017279         0.477568
 C         1.321892        -0.052599         0.154590
 C         2.077305         1.284435         0.227873
 O         3.414352         0.931404         0.097721
 C         3.255136        -0.489880         0.004428
 C         2.204494        -1.057309         0.959379
 C         1.876003        -2.152325        -0.086882
 C         2.109836        -0.875598        -0.923217
 O         2.166556        -0.773889        -2.396101
 H        -0.290730        -0.084520         1.559303
 H        -0.460959         0.993835         0.315786
 H        -0.797655        -0.556286        -0.254822
 H         1.656532         1.787914        -0.704455
 H         1.820945         1.828071         1.144076
 H         4.356048        -0.924486        -0.064861
 H         2.368661        -1.180311         2.060901
 H         2.731130        -2.739948        -0.229206
 H         0.942853        -2.678279        -0.211614
 H         1.857237         0.084104        -2.535208
