19
Iteration:  4688
 C        -0.138171        -0.300370         0.244672
 C         1.355828        -0.044988         0.174659
 C         1.925594         1.378848         0.182533
 O         3.387069         1.070448         0.046063
 C         3.356125        -0.417213        -0.019460
 C         2.307820        -0.891729         0.969625
 C         1.993059        -2.086215        -0.000166
 C         2.153266        -0.871251        -0.845873
 O         2.021272        -0.932498        -2.241637
 H        -0.255515        -0.754983         1.289617
 H        -0.771925         0.549779         0.550714
 H        -0.569141        -0.884673        -0.593504
 H         1.546354         1.896141        -0.794347
 H         1.687949         2.053680         1.032558
 H         4.338252        -0.654002        -0.066700
 H         2.292850        -0.960859         2.108320
 H         2.724143        -2.828169        -0.163999
 H         1.095512        -2.634253        -0.042482
 H         1.994187        -0.051161        -2.588236
