19
Iteration:  2640charge 0 multiplicity 1
 C        -0.080100        -0.311975         0.109669
 C         1.366614        -0.083730         0.220223
 C         1.952785         1.350452         0.329852
 O         3.396367         1.036577         0.172525
 C         3.380772        -0.408055        -0.046367
 C         2.294732        -1.049856         0.967803
 C         1.976609        -2.163018        -0.029238
 C         2.165045        -0.773529        -0.877306
 O         1.934303        -0.601918        -2.290514
 H        -0.549594         0.083159         1.025014
 H        -0.559773        -0.032752        -0.811197
 H        -0.405262        -1.416204         0.087566
 H         1.696356         1.872079        -0.567903
 H         1.865492         1.787057         1.358331
 H         4.398970        -0.792067        -0.297862
 H         2.474077        -1.156410         2.058346
 H         2.674818        -3.007935        -0.200387
 H         0.987400        -2.618754         0.025749
 H         1.506473        -1.232260        -2.803608
