19
Iteration:  1991charge 0 multiplicity 1
 C        -0.151442        -0.171415         0.263963
 C         1.351217        -0.030472         0.259173
 C         1.972545         1.379293         0.335956
 O         3.402433         1.048490         0.208228
 C         3.338864        -0.399643        -0.035817
 C         2.284422        -1.110551         0.934867
 C         2.024189        -2.189151        -0.219615
 C         2.112892        -0.818101        -0.897946
 O         2.040576        -0.730283        -2.318603
 H        -0.619882         0.414768         1.166033
 H        -0.615371         0.042131        -0.648270
 H        -0.374057        -1.195535         0.369535
 H         1.607222         2.011809        -0.485633
 H         1.771954         1.974717         1.241171
 H         4.366575        -0.716129         0.071250
 H         2.396270        -1.450299         1.901572
 H         2.832253        -2.943045        -0.598981
 H         1.032994        -2.654092        -0.159368
 H         1.382667        -1.337619        -2.698343
