19
Iteration:   114
 C        -0.142351         0.138661         0.424993
 C         1.344005        -0.028397         0.268447
 C         2.154566         1.313592         0.293451
 O         3.491297         0.902765         0.133424
 C         3.273475        -0.493709        -0.061711
 C         2.202678        -1.091693         0.960055
 C         1.742277        -2.148943        -0.154288
 C         2.096367        -0.924305        -0.963799
 O         2.075959        -0.812091        -2.378711
 H        -0.213708         0.459839         1.468888
 H        -0.465147         1.065026        -0.159675
 H        -0.784248        -0.662739         0.370682
 H         1.910635         2.024643        -0.513442
 H         2.044456         1.966835         1.142848
 H         4.283589        -0.880627        -0.529001
 H         2.170804        -1.190255         2.117015
 H         2.324014        -3.080799        -0.216170
 H         0.635027        -2.197055        -0.199226
 H         3.021065        -1.000569        -2.689617
