19
Iteration:  1910
 C        -0.154388        -0.109726         0.272464
 C         1.322364        -0.117212         0.288030
 C         1.954526         1.265606         0.172778
 O         3.393532         0.999714         0.140377
 C         3.358615        -0.444449         0.055852
 C         2.317162        -1.071094         0.954058
 C         2.035440        -2.173767        -0.194734
 C         2.145923        -0.787572        -0.907535
 O         1.954360        -0.686066        -2.244229
 H        -0.726813         0.294955         1.036175
 H        -0.556194         0.508413        -0.595968
 H        -0.692394        -1.152201         0.257545
 H         1.705234         1.666021        -0.788009
 H         1.667959         1.877832         0.988187
 H         4.357169        -0.901031        -0.121291
 H         2.390092        -1.394831         2.073404
 H         2.950198        -2.842974        -0.183601
 H         1.066242        -2.750060        -0.114159
 H         2.569444         0.082792        -2.500820
