19
Iteration:  2909charge 0 multiplicity 1
 C        -0.189199        -0.058152         0.449077
 C         1.296373        -0.087548         0.310995
 C         1.870966         1.283884         0.197791
 O         3.268270         1.068054         0.084577
 C         3.311398        -0.434978         0.041374
 C         2.247105        -1.144113         0.955723
 C         2.111953        -2.185611        -0.201089
 C         2.268385        -0.951857        -0.986664
 O         2.154950        -0.703109        -2.375773
 H        -0.529570         0.337224         1.406560
 H        -0.678664         0.694300        -0.147308
 H        -0.768002        -0.938037         0.343481
 H         1.420450         1.965933        -0.562251
 H         1.795060         1.889574         1.317214
 H         4.397156        -0.772931        -0.079607
 H         2.452530        -1.382506         2.084373
 H         2.872211        -2.998349        -0.179492
 H         1.162471        -2.836933        -0.324358
 H         2.158242         0.286569        -2.338294
