19
Iteration:  3518charge 0 multiplicity 1
 C        -0.229420        -0.290138         0.178554
 C         1.346365        -0.089867         0.185504
 C         1.939938         1.329088         0.403406
 O         3.433471         1.057511         0.227245
 C         3.379784        -0.345013        -0.099715
 C         2.374744        -1.030591         0.920184
 C         2.060586        -2.136705        -0.093170
 C         2.142544        -0.842294        -0.939243
 O         1.906778        -0.770659        -2.277280
 H        -0.771877         0.123272         1.014168
 H        -0.612500         0.185629        -0.824578
 H        -0.557175        -1.293478         0.057830
 H         1.756661         1.989188        -0.417593
 H         1.799561         1.726186         1.510975
 H         4.309923        -0.765330        -0.273427
 H         2.474236        -1.090420         2.040134
 H         2.800053        -2.905823        -0.179141
 H         1.105805        -2.638613        -0.164362
 H         2.131702         0.094057        -2.549241
