19
Iteration:  2284
 C        -0.219657        -0.132025         0.330143
 C         1.259030        -0.019888         0.171868
 C         2.058852         1.305217         0.324631
 O         3.387708         1.071142         0.254350
 C         3.370456        -0.348475         0.031657
 C         2.245550        -1.053370         0.892504
 C         2.093717        -2.151940        -0.147695
 C         2.145473        -0.821400        -0.936439
 O         1.978267        -0.943915        -2.411556
 H        -0.429843        -0.103156         1.419902
 H        -0.937521         0.644911        -0.002097
 H        -0.528539        -1.059471        -0.242779
 H         1.806234         2.122817        -0.350005
 H         1.834975         1.876305         1.304256
 H         4.464324        -0.752178        -0.193066
 H         2.396953        -1.338539         1.910476
 H         2.949968        -2.793827        -0.243395
 H         1.169499        -2.685643        -0.096649
 H         2.030289        -0.141031        -2.915177
