19
Iteration:   303
 C        -0.131718         0.026832         0.398610
 C         1.359021         0.023769         0.102656
 C         2.237303         1.319441         0.099185
 O         3.537034         0.801479         0.072836
 C         3.290327        -0.560570         0.005510
 C         2.104442        -1.028523         0.995251
 C         1.682224        -2.149802        -0.087169
 C         2.096624        -0.880629        -0.895913
 O         2.116930        -0.588194        -2.218072
 H        -0.191547         0.483930         1.413906
 H        -0.824572         0.477845        -0.253679
 H        -0.473392        -1.075254         0.596275
 H         2.111274         1.970468        -0.725685
 H         2.219858         1.907480         0.966278
 H         4.193247        -0.984838        -0.246000
 H         1.999117        -1.176041         2.086446
 H         2.385406        -3.066775        -0.130611
 H         0.605407        -2.447067        -0.058999
 H         1.916121        -1.356668        -2.668075
