19
Iteration:  4719
 C        -0.237333        -0.254330         0.074214
 C         1.316234        -0.033734         0.220450
 C         1.959831         1.401853         0.303125
 O         3.411800         1.061228         0.015061
 C         3.416925        -0.328717         0.001616
 C         2.369134        -0.913710         0.993709
 C         2.077195        -2.119146         0.118889
 C         2.165572        -0.916440        -0.929429
 O         1.926536        -0.981319        -2.265129
 H        -0.339684        -1.100943         0.692544
 H        -0.772483         0.541071         0.563024
 H        -0.666604        -0.444897        -0.889955
 H         1.594156         2.048131        -0.557142
 H         1.757426         1.844960         1.277429
 H         4.406134        -0.649475        -0.037236
 H         2.351059        -1.017320         2.154395
 H         2.929682        -2.776188        -0.068308
 H         1.097282        -2.467646         0.153082
 H         1.478017        -0.143455        -2.603464
