19
Iteration:   883charge 0 multiplicity 1
 C        -0.152507        -0.051178         0.051791
 C         1.399372        -0.054790         0.200238
 C         2.100154         1.248880         0.265217
 O         3.480001         0.883115         0.165097
 C         3.433716        -0.507054        -0.022811
 C         2.308544        -1.049676         1.021965
 C         1.889408        -2.186684        -0.091141
 C         2.179884        -0.899671        -0.885524
 O         1.781003        -0.589711        -2.194519
 H        -0.521000         0.830584         0.690824
 H        -0.303033         0.081498        -0.962652
 H        -0.699731        -0.902607         0.462596
 H         1.876300         1.816457        -0.707674
 H         1.837712         1.912021         1.077576
 H         4.389897        -0.950241        -0.187950
 H         2.467388        -1.247891         2.056971
 H         2.462110        -3.107980        -0.211768
 H         0.826702        -2.325077         0.067370
 H         1.641663         0.341827        -2.209634
