19
Iteration:  1909charge 0 multiplicity 1
 C        -0.165074        -0.114389         0.278091
 C         1.320357        -0.113395         0.289558
 C         1.956936         1.268795         0.166246
 O         3.392713         1.005032         0.143816
 C         3.365199        -0.445800         0.056027
 C         2.323240        -1.070228         0.956457
 C         2.036395        -2.179588        -0.196166
 C         2.143745        -0.784622        -0.907142
 O         1.960620        -0.689364        -2.250722
 H        -0.731857         0.291027         1.039295
 H        -0.567328         0.530496        -0.571347
 H        -0.697400        -1.140570         0.266701
 H         1.694979         1.647422        -0.796633
 H         1.675208         1.861090         0.971063
 H         4.363874        -0.906874        -0.121330
 H         2.381582        -1.426104         2.077617
 H         2.888574        -2.877621        -0.188207
 H         1.057503        -2.720844        -0.111736
 H         2.565658         0.110902        -2.491174
