19
Iteration:  3228
 C        -0.145799        -0.160004         0.403405
 C         1.254770        -0.073544         0.202297
 C         1.895974         1.287137         0.287699
 O         3.266775         0.962433         0.185713
 C         3.324275        -0.393328        -0.031523
 C         2.305428        -1.037136         0.916977
 C         2.137363        -2.148655        -0.134094
 C         2.134945        -0.919710        -0.976557
 O         2.105729        -0.666656        -2.372575
 H        -0.620497         0.668819         1.061132
 H        -0.658883         0.026036        -0.509807
 H        -0.640688        -1.131707         0.900144
 H         1.619667         2.092279        -0.422399
 H         1.651615         1.804874         1.152202
 H         4.247436        -0.897377        -0.214818
 H         2.625700        -1.181567         1.923086
 H         2.936498        -2.931890        -0.234028
 H         1.223150        -2.639203         0.011151
 H         2.822386        -0.053952        -2.622755
