19
Iteration:  3134charge 0 multiplicity 1
 C        -0.257234        -0.024428         0.238759
 C         1.309113        -0.109948         0.201819
 C         1.849171         1.254444         0.342182
 O         3.303684         0.991101         0.074797
 C         3.374275        -0.413866         0.044617
 C         2.358638        -1.054276         0.984442
 C         2.232364        -2.205664        -0.151960
 C         2.220315        -0.833694        -0.890771
 O         1.979266        -0.763016        -2.319219
 H        -0.683353         0.139631         1.202818
 H        -0.586325         0.762556        -0.437439
 H        -0.799702        -0.870574        -0.030947
 H         1.351698         1.959246        -0.264340
 H         1.439437         1.752147         1.335209
 H         4.463601        -0.749107        -0.155872
 H         2.564421        -1.199592         2.062027
 H         3.056222        -2.911723        -0.236600
 H         1.209438        -2.779795         0.009609
 H         2.471324         0.039189        -2.729002
