19
Iteration:  2698charge 0 multiplicity 1
 C        -0.253522        -0.061527         0.467901
 C         1.323677        -0.185953         0.155678
 C         1.872109         1.275847         0.206990
 O         3.311874         1.077531         0.155842
 C         3.400461        -0.337398        -0.018435
 C         2.206613        -1.074447         0.893010
 C         2.100636        -2.261094        -0.146272
 C         2.217480        -0.944584        -0.934176
 O         2.190538        -0.657326        -2.322431
 H        -0.317180         0.338501         1.414067
 H        -0.544047         0.717145        -0.249432
 H        -0.706884        -1.058093         0.422606
 H         1.526775         2.093127        -0.349091
 H         1.635901         1.608837         1.169494
 H         4.438467        -0.696444        -0.139806
 H         2.240189        -1.259397         1.948759
 H         3.012021        -2.891422        -0.145565
 H         1.107979        -2.758152        -0.145112
 H         1.221787        -0.597977        -2.685353
