19
Iteration:  4335
 C        -0.164289        -0.339754         0.325616
 C         1.329533        -0.050700         0.183037
 C         1.887333         1.296303         0.288677
 O         3.384757         1.083816         0.092983
 C         3.360098        -0.371658         0.004695
 C         2.341673        -1.062647         0.944713
 C         2.013283        -2.187795        -0.101476
 C         2.152490        -0.850570        -0.922586
 O         2.018386        -0.641728        -2.297438
 H        -0.571233        -0.485345         1.466962
 H        -0.835270         0.550517         0.065935
 H        -0.541630        -1.129222        -0.385883
 H         1.651014         2.003497        -0.531672
 H         1.753865         1.723488         1.359507
 H         4.380997        -0.790203        -0.219907
 H         2.293826        -1.150695         1.990356
 H         2.669450        -3.065398        -0.360441
 H         1.019996        -2.523070         0.082724
 H         2.742171        -0.250930        -2.793490
