19
Iteration:  3952charge 0 multiplicity 1
 C        -0.260543        -0.133304         0.571308
 C         1.240285        -0.193157         0.262996
 C         1.873078         1.255261         0.480642
 O         3.268292         1.016180         0.198179
 C         3.310439        -0.372045        -0.087946
 C         2.284333        -1.218802         0.766459
 C         2.143421        -2.204035        -0.356221
 C         2.211585        -0.845307        -1.028248
 O         2.180055        -0.542059        -2.367547
 H        -0.220603         0.415364         1.555114
 H        -0.799542         0.540556        -0.151463
 H        -0.679117        -1.160433         0.581765
 H         1.384527         2.061861        -0.286636
 H         1.808063         1.645689         1.537948
 H         4.382521        -0.638653        -0.129997
 H         2.399013        -1.296271         1.854190
 H         2.965280        -2.850492        -0.578382
 H         1.283291        -2.839626        -0.501262
 H         2.722625         0.218848        -2.409445
