19
Iteration:   886
 C        -0.180079        -0.036658         0.059745
 C         1.389127        -0.078083         0.178149
 C         2.099069         1.235771         0.260945
 O         3.512574         0.893523         0.161228
 C         3.428791        -0.502030        -0.002657
 C         2.318290        -1.047366         1.019172
 C         1.889623        -2.185885        -0.094182
 C         2.176751        -0.921430        -0.867429
 O         1.763431        -0.581352        -2.198048
 H        -0.498746         0.838895         0.647872
 H        -0.326625        -0.016823        -1.120139
 H        -0.586024        -0.910808         0.484973
 H         1.890505         1.863883        -0.627512
 H         1.884276         1.897148         1.068481
 H         4.420895        -0.885714        -0.157307
 H         2.392338        -1.230552         2.055184
 H         2.543893        -3.103031        -0.165702
 H         0.828863        -2.334072         0.023692
 H         1.631415         0.454859        -2.183377
