19
Iteration:  2031
 C        -0.122270        -0.104167         0.464082
 C         1.284604        -0.093202         0.146016
 C         1.911072         1.298567         0.148213
 O         3.300981         0.998467         0.173682
 C         3.313970        -0.449752        -0.016156
 C         2.258761        -1.076239         0.923286
 C         2.074051        -2.268082        -0.078251
 C         2.126370        -0.917304        -0.991983
 O         2.223913        -0.555596        -2.333883
 H        -0.106911         0.089902         1.505147
 H        -0.936757         0.567853         0.080660
 H        -0.624391        -1.147150         0.313140
 H         1.694505         1.954550        -0.736592
 H         1.560376         1.849990         1.032838
 H         4.245393        -0.966799        -0.139048
 H         2.273160        -1.014509         2.010772
 H         2.900738        -2.960831        -0.051022
 H         1.170258        -2.817947         0.020526
 H         1.330801        -0.168202        -2.545855
