19
Iteration:   128charge 0 multiplicity 1
 C        -0.144196         0.216308         0.500208
 C         1.325067        -0.018868         0.138614
 C         2.099756         1.281421         0.275336
 O         3.490862         0.863056         0.107783
 C         3.282211        -0.566377        -0.059017
 C         2.214655        -1.071350         0.909949
 C         1.785881        -2.181565         0.001906
 C         2.042598        -0.892560        -0.986863
 O         2.130505        -0.697194        -2.416451
 H        -0.295138         0.332044         1.574060
 H        -0.565506         1.031389        -0.016683
 H        -0.760583        -0.652610         0.092334
 H         1.752631         1.905929        -0.688744
 H         1.975183         1.719607         1.308621
 H         4.200652        -1.121371         0.020966
 H         2.384409        -1.112319         2.051325
 H         2.406926        -3.116446        -0.170953
 H         0.746160        -2.615802         0.184918
 H         2.997898        -1.081104        -2.712205
