19
Iteration:   397
 C        -0.175378         0.068966         0.186885
 C         1.341217         0.080435         0.301428
 C         2.198105         1.313988         0.417644
 O         3.616144         0.828032         0.056665
 C         3.364335        -0.550308        -0.007700
 C         2.126035        -0.969609         0.934453
 C         1.862138        -2.082342        -0.164360
 C         2.123484        -0.817304        -0.875847
 O         1.895774        -0.930829        -2.306954
 H        -0.549162         0.462171         1.119730
 H        -0.507806         0.698963        -0.738444
 H        -0.645600        -0.882017         0.054260
 H         1.807327         2.170845        -0.292784
 H         2.231711         1.639149         1.539615
 H         4.249554        -1.361649        -0.091478
 H         2.060949        -1.136620         2.073863
 H         2.639269        -2.779266        -0.300960
 H         0.887381        -2.582634        -0.161041
 H         1.618414         0.026325        -2.633186
