19
Iteration:  3123
 C        -0.189684        -0.078294         0.285710
 C         1.285396        -0.110460         0.252899
 C         1.861169         1.309128         0.338477
 O         3.313347         1.050213         0.091212
 C         3.321373        -0.345726         0.031526
 C         2.306399        -1.104572         0.972461
 C         2.155935        -2.131128        -0.158279
 C         2.199737        -0.884919        -0.952575
 O         2.037326        -0.825288        -2.327451
 H        -0.494572         0.204578         1.277568
 H        -0.605096         0.638705        -0.408343
 H        -0.512829        -1.027801         0.013567
 H         1.556255         1.955403        -0.429778
 H         1.943145         1.629856         1.432208
 H         4.372942        -0.801193         0.002327
 H         2.289494        -1.413736         2.021995
 H         3.058970        -2.727769        -0.269202
 H         1.199505        -2.786365        -0.271547
 H         2.347490         0.026389        -2.756720
