19
Iteration:   413
 C        -0.198816         0.071063         0.247761
 C         1.378438         0.086064         0.145963
 C         2.284645         1.388863         0.348955
 O         3.528944         0.835900         0.074007
 C         3.290766        -0.552186         0.014714
 C         2.176075        -1.082192         0.976738
 C         1.845554        -2.166017        -0.106590
 C         2.052575        -0.861964        -0.937174
 O         1.903827        -0.805101        -2.256611
 H        -0.741375         0.590574         1.078105
 H        -0.634770         0.462742        -0.628021
 H        -0.411568        -1.053353         0.365945
 H         2.124127         2.173523        -0.333173
 H         2.254912         1.806195         1.365677
 H         4.182550        -1.064728        -0.076180
 H         2.309045        -1.220674         2.017461
 H         2.689113        -2.927958        -0.256067
 H         0.843378        -2.610454        -0.181981
 H         2.560444        -0.112339        -2.639531
