19
Iteration:   109charge 0 multiplicity 1
 C        -0.133464         0.134165         0.428927
 C         1.367936        -0.006089         0.281930
 C         2.116873         1.368376         0.287942
 O         3.489891         0.882375         0.135845
 C         3.341245        -0.516929        -0.083857
 C         2.187980        -1.092399         0.936227
 C         1.711598        -2.112932        -0.196392
 C         2.122871        -0.881542        -0.909773
 O         2.049727        -0.861466        -2.338650
 H        -0.335665         0.538559         1.455421
 H        -0.476867         0.902087        -0.280850
 H        -0.819001        -0.793672         0.303031
 H         1.972170         2.038264        -0.590596
 H         2.044325         1.888920         1.284910
 H         4.304683        -0.867770        -0.388961
 H         2.237507        -1.319325         1.959632
 H         2.329645        -3.007330        -0.290032
 H         0.660062        -2.365523        -0.360692
 H         2.923780        -0.921135        -2.710017
