19
Iteration:  2413
 C        -0.096203        -0.232972         0.392457
 C         1.324502        -0.049523         0.177072
 C         1.874814         1.334281         0.312808
 O         3.423375         1.052242         0.204850
 C         3.360809        -0.452136         0.026904
 C         2.261672        -1.007843         0.920817
 C         1.951933        -2.074806        -0.220459
 C         2.160617        -0.824050        -0.957480
 O         2.053749        -0.841512        -2.361778
 H        -0.527872         0.458638         0.992416
 H        -0.555452        -0.261035        -0.675693
 H        -0.440678        -1.115411         1.045176
 H         1.713882         2.047792        -0.523882
 H         1.631041         1.552797         1.316655
 H         4.498920        -0.742019        -0.058139
 H         2.214698        -1.018870         1.997844
 H         2.706316        -2.948641        -0.289367
 H         0.943285        -2.447281        -0.032133
 H         2.181542        -0.066366        -3.012450
