19
Iteration:  1423
 C        -0.084309        -0.080785         0.132390
 C         1.371685         0.020670         0.089875
 C         2.060488         1.281292         0.401757
 O         3.445189         0.890033         0.157679
 C         3.385305        -0.495204         0.000823
 C         2.274871        -1.011021         0.929462
 C         1.997041        -2.179175         0.041176
 C         2.158197        -0.869152        -0.955907
 O         1.707689        -0.635602        -2.278701
 H        -0.732399         0.513958         0.907108
 H        -0.289556         0.291658        -1.035988
 H        -0.482228        -1.085196         0.190929
 H         1.929781         2.151907        -0.266731
 H         2.099770         1.645575         1.484664
 H         4.407651        -0.837937         0.107398
 H         2.402432        -0.939471         2.015350
 H         2.901462        -2.894210        -0.175511
 H         1.022618        -2.764401         0.025175
 H         2.378699        -1.002243        -2.912465
