19
Iteration:   892
 C        -0.193414        -0.014152         0.044220
 C         1.361169        -0.130327         0.153822
 C         2.108305         1.231707         0.225569
 O         3.582435         0.922301         0.152137
 C         3.407456        -0.498398         0.059516
 C         2.331069        -1.075429         0.974587
 C         1.909525        -2.179967        -0.071499
 C         2.145553        -0.929205        -0.849595
 O         1.732763        -0.556220        -2.207544
 H        -0.607140         0.953375         0.469716
 H        -0.482575        -0.171918        -0.928197
 H        -0.480315        -1.004838         0.564769
 H         1.862153         2.030870        -0.531813
 H         1.999679         1.793556         1.237241
 H         4.456987        -0.866782        -0.039688
 H         2.256609        -1.160958         2.129835
 H         2.629200        -2.962236        -0.104294
 H         0.848149        -2.556126        -0.125510
 H         1.694452         0.379135        -2.146820
