19
Iteration:   399
 C        -0.171173         0.072114         0.189490
 C         1.315040         0.098621         0.297486
 C         2.206969         1.326381         0.413076
 O         3.612476         0.820223         0.051839
 C         3.374300        -0.558069        -0.003126
 C         2.126410        -0.975110         0.925515
 C         1.864648        -2.096130        -0.172689
 C         2.103571        -0.824586        -0.861635
 O         1.895254        -0.918085        -2.302996
 H        -0.537492         0.484030         1.134272
 H        -0.509429         0.595931        -0.690172
 H        -0.646601        -0.969612         0.063726
 H         1.870960         2.157169        -0.285059
 H         2.268862         1.690859         1.531825
 H         4.253275        -1.234690        -0.069824
 H         2.060113        -1.103320         2.044408
 H         2.668243        -2.825992        -0.273621
 H         0.910715        -2.600949        -0.215456
 H         1.760235        -0.009277        -2.604507
