19
Iteration:  1870charge 0 multiplicity 1
 C        -0.107157        -0.187324         0.486063
 C         1.316722        -0.016095         0.119171
 C         1.947596         1.297571         0.196438
 O         3.341053         0.976297         0.200697
 C         3.317234        -0.489551        -0.029747
 C         2.189856        -0.967250         0.891067
 C         1.968616        -2.135695        -0.110618
 C         2.095695        -0.864635        -0.941416
 O         2.240244        -0.736842        -2.355854
 H        -0.067284        -0.057012         1.641204
 H        -0.681662         0.539534        -0.023647
 H        -0.484001        -1.160801         0.193361
 H         1.605889         2.042880        -0.589295
 H         1.713093         1.825504         1.223178
 H         4.297312        -0.963328        -0.130431
 H         2.181605        -1.111849         1.939817
 H         2.722249        -2.991559        -0.134283
 H         0.924777        -2.444362        -0.122804
 H         1.805925        -0.008890        -2.774284
