19
Iteration:  3060charge 0 multiplicity 1
 C        -0.142790        -0.207824         0.390116
 C         1.308003        -0.064058         0.198220
 C         1.874466         1.332553         0.230049
 O         3.387067         1.051212         0.148648
 C         3.310764        -0.366172        -0.003757
 C         2.250840        -1.081777         0.914197
 C         2.032525        -2.218820        -0.139819
 C         2.191023        -0.862681        -0.942664
 O         2.100516        -0.734263        -2.318397
 H        -0.491592         0.383664         1.236154
 H        -0.842858        -0.023470        -0.579792
 H        -0.446000        -1.191880         0.715123
 H         1.489746         2.003779        -0.694760
 H         1.721379         1.859364         1.193533
 H         4.356368        -0.825639        -0.093962
 H         2.179645        -1.130357         2.140046
 H         2.838651        -2.858015        -0.231062
 H         1.020399        -2.694217        -0.272806
 H         2.532553         0.177519        -2.379695
