19
Iteration:  3947charge 0 multiplicity 1
 C        -0.238833        -0.144218         0.590328
 C         1.249304        -0.213237         0.257882
 C         1.866245         1.276197         0.476001
 O         3.246196         1.005994         0.203209
 C         3.308319        -0.382114        -0.147144
 C         2.273579        -1.221026         0.813679
 C         2.158346        -2.198043        -0.347355
 C         2.207906        -0.805212        -1.052401
 O         2.196566        -0.543520        -2.348477
 H        -0.373500         0.601559         1.381798
 H        -0.672602         0.508000        -0.151781
 H        -0.817097        -1.057963         0.704807
 H         1.452205         1.998074        -0.196879
 H         1.707614         1.670844         1.468891
 H         4.358683        -0.686484        -0.142013
 H         2.418238        -1.560364         1.887218
 H         3.016933        -2.901599        -0.601947
 H         1.197734        -2.845299        -0.503468
 H         2.781140         0.272126        -2.542841
