19
Iteration:  2209
 C        -0.168934        -0.274154         0.291908
 C         1.341430        -0.005596         0.247482
 C         2.014655         1.322452         0.234478
 O         3.334760         0.934296         0.020332
 C         3.284689        -0.483213        -0.048749
 C         2.281584        -1.035151         0.954814
 C         1.996688        -2.128852        -0.157086
 C         2.137531        -0.873772        -0.875277
 O         2.059762        -0.586437        -2.179707
 H        -0.775450         0.260232         1.175064
 H        -0.725459         0.111970        -0.532112
 H        -0.324816        -1.311715         0.582858
 H         1.596970         1.853202        -0.716700
 H         1.876311         1.801535         1.253899
 H         4.392968        -0.904441         0.011511
 H         2.391772        -0.999295         2.043133
 H         2.797007        -2.857011        -0.344800
 H         0.997698        -2.615663        -0.139326
 H         2.859998        -0.015447        -2.480027
