19
Iteration:  1990
 C        -0.137006        -0.171410         0.262302
 C         1.358383        -0.018397         0.252986
 C         1.969017         1.381520         0.343548
 O         3.398387         1.046638         0.205696
 C         3.339861        -0.395344        -0.034190
 C         2.282270        -1.120384         0.931934
 C         2.016794        -2.186912        -0.211014
 C         2.113488        -0.820218        -0.897810
 O         2.036728        -0.728870        -2.312422
 H        -0.623711         0.414377         1.124957
 H        -0.594476         0.004222        -0.659588
 H        -0.402388        -1.205611         0.325864
 H         1.581945         2.000840        -0.437064
 H         1.805671         1.964013         1.213331
 H         4.359486        -0.696548         0.057176
 H         2.410454        -1.461185         1.867067
 H         2.828021        -2.922088        -0.611387
 H         1.040594        -2.661511        -0.165339
 H         1.379734        -1.388832        -2.699468
