19
Iteration:  3752charge 0 multiplicity 1
 C        -0.154396        -0.384996         0.474247
 C         1.294126        -0.114888         0.236039
 C         1.928781         1.278854         0.329697
 O         3.364500         1.039295         0.184590
 C         3.333168        -0.378979        -0.047938
 C         2.256730        -1.114407         0.906111
 C         1.920266        -2.146136        -0.309370
 C         2.155651        -0.792895        -0.970948
 O         2.171972        -0.552517        -2.319572
 H        -0.186169        -1.029128         1.373086
 H        -0.692058         0.695257         0.606542
 H        -0.746026        -0.941218        -0.337975
 H         1.654416         1.941907        -0.432236
 H         1.769953         1.741216         1.351189
 H         4.342036        -0.721858        -0.250905
 H         2.353060        -1.314761         1.976661
 H         2.588283        -2.951929        -0.668215
 H         0.875655        -2.506912        -0.292598
 H         2.701590         0.292917        -2.504969
