19
Iteration:  2637charge 0 multiplicity 1
 C        -0.058853        -0.319898         0.101094
 C         1.358708        -0.078539         0.228139
 C         1.931512         1.354492         0.337496
 O         3.386946         1.026446         0.161536
 C         3.400906        -0.429519        -0.032920
 C         2.316858        -1.028876         0.975186
 C         1.958750        -2.171480        -0.043063
 C         2.171001        -0.781790        -0.901124
 O         1.933547        -0.594437        -2.280856
 H        -0.579009         0.155865         1.018836
 H        -0.587175         0.016716        -0.784215
 H        -0.403013        -1.298481         0.117398
 H         1.641305         1.977714        -0.551283
 H         1.851084         1.773143         1.384338
 H         4.370123        -0.815114        -0.199654
 H         2.465600        -1.111365         2.058599
 H         2.699556        -2.931087        -0.233398
 H         1.046451        -2.730916         0.037653
 H         1.478379        -1.319045        -2.836021
