19
Iteration:  1916
 C        -0.130389        -0.105789         0.228917
 C         1.342291        -0.117835         0.258675
 C         1.946647         1.257805         0.222551
 O         3.392842         0.964204         0.128469
 C         3.322656        -0.428547         0.032539
 C         2.271452        -1.095613         0.954460
 C         2.059954        -2.144549        -0.163333
 C         2.152157        -0.846823        -0.884010
 O         1.920187        -0.657121        -2.218662
 H        -0.609145         0.422801         1.165360
 H        -0.429365         0.310891        -0.722289
 H        -0.498476        -1.074968         0.141720
 H         1.684531         1.837653        -0.731256
 H         1.702243         1.997999         1.063562
 H         4.316045        -0.850348        -0.094225
 H         2.447035        -1.142969         2.002973
 H         3.029360        -2.613534        -0.271736
 H         1.228085        -2.815684        -0.169398
 H         2.591254        -0.064688        -2.655951
