19
Iteration:    24
 C        -0.128078         0.163668         0.128041
 C         1.385680        -0.022295         0.390151
 C         2.162189         1.290591         0.207358
 O         3.537497         0.855464         0.042835
 C         3.362731        -0.579085        -0.077036
 C         2.238949        -1.181218         1.030820
 C         1.814026        -2.195766        -0.100779
 C         2.074932        -0.858712        -0.820976
 O         1.914265        -0.564452        -2.162290
 H        -0.629170         0.900046         0.753880
 H        -0.172689         0.553042        -0.920842
 H        -0.672425        -0.726720         0.153107
 H         1.789658         1.834699        -0.711541
 H         2.029898         2.013518         0.979265
 H         4.312750        -1.140877        -0.230107
 H         2.370819        -1.467040         2.027928
 H         2.478757        -2.992108        -0.394873
 H         0.788561        -2.481772        -0.129060
 H         1.610741        -1.404699        -2.618804
