19
Iteration:  3227
 C        -0.149175        -0.170985         0.399232
 C         1.266735        -0.071170         0.199269
 C         1.906432         1.290054         0.281548
 O         3.267086         0.963290         0.188164
 C         3.320980        -0.390015        -0.033914
 C         2.299807        -1.032192         0.916326
 C         2.127240        -2.154767        -0.132807
 C         2.134073        -0.914221        -0.980754
 O         2.102379        -0.664659        -2.369648
 H        -0.590651         0.622921         1.059502
 H        -0.670869         0.002170        -0.500003
 H        -0.607242        -1.106265         0.882538
 H         1.632628         2.068516        -0.415638
 H         1.652541         1.826764         1.202626
 H         4.241143        -0.868741        -0.200037
 H         2.616580        -1.197708         1.960912
 H         2.926152        -2.926779        -0.214203
 H         1.259307        -2.653630         0.020100
 H         2.805330        -0.079410        -2.607198
