19
Iteration:   560charge 0 multiplicity 1
 C        -0.263882         0.161931         0.188421
 C         1.315994         0.016840         0.273167
 C         2.241447         1.338278         0.394843
 O         3.547039         0.883126         0.060779
 C         3.340672        -0.511965         0.002079
 C         2.190541        -1.072072         0.985626
 C         2.020891        -2.170192        -0.108924
 C         2.061018        -0.898441        -0.895830
 O         1.865793        -0.861440        -2.343218
 H        -0.749630         0.093281         1.144445
 H        -0.513140         1.061466        -0.513229
 H        -0.643053        -0.699282        -0.343596
 H         1.940523         2.170473        -0.268713
 H         2.278576         1.708484         1.379331
 H         4.421960        -0.956630         0.036072
 H         2.333287        -1.323171         2.048644
 H         2.832331        -2.922441        -0.145412
 H         1.014400        -2.674749        -0.085248
 H         1.654281        -0.039816        -2.731012
