19
Iteration:  3682
 C        -0.242622        -0.199192         0.135567
 C         1.350741        -0.112058         0.206480
 C         1.952122         1.253889         0.467649
 O         3.317373         0.991936         0.223233
 C         3.352952        -0.356726        -0.034627
 C         2.437928        -1.146504         0.927667
 C         2.103617        -2.098727        -0.220294
 C         2.205549        -0.762141        -0.904189
 O         1.861945        -0.697889        -2.288982
 H        -0.423715        -0.929553        -0.685649
 H        -0.512791        -0.497524         1.295007
 H        -0.602993         0.798377        -0.127108
 H         1.552935         2.023274        -0.218533
 H         1.986020         1.525496         1.481854
 H         4.406058        -0.700483        -0.233190
 H         2.580439        -1.383947         1.998408
 H         2.931594        -2.911113        -0.478371
 H         1.075359        -2.566844        -0.115626
 H         2.261281         0.142710        -2.723463
