19
Iteration:   173charge 0 multiplicity 1
 C        -0.147870         0.040780         0.266375
 C         1.358693         0.036549         0.323085
 C         2.154495         1.321362         0.119721
 O         3.614248         0.858322         0.027963
 C         3.403734        -0.588218         0.101014
 C         2.173440        -1.133993         0.985308
 C         1.752946        -2.153137        -0.088818
 C         2.079310        -0.851605        -0.887960
 O         1.883442        -0.581150        -2.261383
 H        -0.600746         0.165657         1.252147
 H        -0.438162         0.848499        -0.325485
 H        -0.570795        -0.886368        -0.264036
 H         1.899679         1.834393        -0.930165
 H         2.084954         1.945628         1.049293
 H         4.295690        -1.091159        -0.012490
 H         2.199604        -1.295070         2.056289
 H         2.457433        -3.020080        -0.167695
 H         0.801317        -2.712091        -0.032111
 H         2.665688        -1.131694        -2.636394
