19
Iteration:  2124charge 0 multiplicity 1
 C        -0.254369        -0.149416         0.207648
 C         1.328545        -0.126398         0.253249
 C         1.985319         1.334814         0.341616
 O         3.404687         1.010114         0.233752
 C         3.399633        -0.352654         0.055032
 C         2.336294        -1.053913         0.888877
 C         2.134973        -2.094489        -0.195103
 C         2.198144        -0.848350        -0.987073
 O         1.882398        -0.756692        -2.327096
 H        -0.421253         0.497132         1.138261
 H        -0.592328         0.412788        -0.649317
 H        -0.788595        -1.045504         0.140788
 H         1.491349         2.110459        -0.239259
 H         1.874764         1.744486         1.326906
 H         4.475190        -0.789317         0.026666
 H         2.376234        -1.230339         2.048892
 H         2.877277        -2.933800        -0.258539
 H         1.057452        -2.563282        -0.107798
 H         1.571800        -1.618991        -2.628341
