19
Iteration:  2122
 C        -0.251381        -0.150006         0.206422
 C         1.326526        -0.112587         0.233904
 C         1.971431         1.314343         0.344314
 O         3.395583         1.000576         0.232631
 C         3.407706        -0.362113         0.031663
 C         2.330430        -1.050741         0.899057
 C         2.129732        -2.088005        -0.179649
 C         2.216724        -0.847317        -0.969100
 O         1.883722        -0.747185        -2.334413
 H        -0.423790         0.469531         1.201485
 H        -0.594947         0.456271        -0.602405
 H        -0.767921        -1.105871         0.140377
 H         1.552779         2.209599        -0.269136
 H         1.873393         1.671252         1.385114
 H         4.494078        -0.795420         0.067944
 H         2.382833        -1.135071         1.969601
 H         2.891397        -2.925355        -0.232216
 H         1.090951        -2.533673        -0.118739
 H         1.515271        -1.655408        -2.638027
