19
Iteration:  4014
 C        -0.146318        -0.381324         0.124940
 C         1.377594        -0.151926         0.268716
 C         1.956799         1.319831         0.378172
 O         3.393833         1.048429         0.304272
 C         3.406754        -0.399703        -0.008663
 C         2.438917        -1.178746         0.900562
 C         2.038918        -2.093548        -0.213515
 C         2.109222        -0.764022        -0.930334
 O         1.837096        -0.570839        -2.322050
 H        -0.726660        -1.006955         0.827704
 H        -0.717636         0.555462         0.320641
 H        -0.451036        -0.843058        -0.836058
 H         1.658862         2.017223        -0.319850
 H         1.797920         1.721837         1.356540
 H         4.374784        -0.782233        -0.128078
 H         2.550062        -1.315982         2.040465
 H         2.799253        -2.796170        -0.618204
 H         0.942752        -2.598908        -0.099499
 H         1.949282         0.352382        -2.416206
