19
Iteration:  2744
 C        -0.162627        -0.328377         0.376367
 C         1.312307        -0.019063         0.288197
 C         1.964923         1.380808         0.384572
 O         3.380529         1.085877         0.076901
 C         3.255326        -0.405818        -0.099571
 C         2.240625        -1.010482         0.911156
 C         1.956809        -2.188105        -0.158410
 C         2.112731        -0.841446        -0.947757
 O         2.261674        -0.726384        -2.281449
 H        -0.542224        -0.068149         1.373813
 H        -0.655712         0.327641        -0.375590
 H        -0.264507        -1.345153         0.151881
 H         1.578672         1.893083        -0.474984
 H         1.856346         1.982688         1.176074
 H         4.228518        -0.827698        -0.193332
 H         2.194942        -1.111356         2.013049
 H         2.816577        -2.877272        -0.317117
 H         0.950059        -2.750307        -0.190528
 H         1.466019        -0.868889        -2.867553
