19
Iteration:  3726charge 0 multiplicity 1
 C        -0.238911        -0.224562         0.376915
 C         1.257486        -0.144510         0.238230
 C         1.897271         1.287397         0.340637
 O         3.318297         0.956775         0.172520
 C         3.337827        -0.419929        -0.047582
 C         2.330356        -1.174274         0.918688
 C         2.163450        -2.147028        -0.208089
 C         2.153100        -0.829867        -0.978131
 O         2.044203        -0.499179        -2.315526
 H        -0.586126        -1.184680         0.799121
 H        -0.474491         0.705006         0.920721
 H        -0.799676         0.006818        -0.521918
 H         1.758567         1.950529        -0.537646
 H         1.751788         1.701258         1.301015
 H         4.442072        -0.756280        -0.157053
 H         2.500079        -1.467072         1.951340
 H         3.050580        -2.906714        -0.447885
 H         1.261995        -2.774252        -0.201505
 H         2.536404         0.386067        -2.430296
