19
Iteration:  2773charge 0 multiplicity 1
 C        -0.214743        -0.268899         0.269478
 C         1.321393        -0.074604         0.110532
 C         1.909164         1.273603         0.282614
 O         3.360357         1.003679         0.155679
 C         3.415640        -0.434644         0.034430
 C         2.375952        -0.996549         0.979120
 C         2.069589        -2.102043        -0.090451
 C         2.161873        -0.833771        -0.935622
 O         2.000936        -0.623238        -2.298011
 H        -0.469628         0.221594         1.169616
 H        -0.510721         0.422219        -0.531799
 H        -0.634008        -1.298106         0.125866
 H         1.673304         2.009637        -0.525357
 H         1.654295         1.725702         1.398821
 H         4.441251        -0.840515        -0.018699
 H         2.162323        -1.150856         1.997660
 H         2.827236        -2.834736        -0.275679
 H         1.215726        -2.682296        -0.087463
 H         1.452719        -1.259523        -2.700180
