19
Iteration:  2177
 C        -0.232240        -0.215843         0.269796
 C         1.310175        -0.100502         0.172633
 C         2.001001         1.216508         0.242567
 O         3.446395         1.011494         0.152774
 C         3.415833        -0.400356         0.025685
 C         2.321400        -1.053236         0.952097
 C         2.018117        -2.191476        -0.044469
 C         2.176809        -0.905442        -0.951275
 O         1.893008        -0.497823        -2.321488
 H        -0.647510         0.647463         0.991332
 H        -0.694621        -0.179772        -0.701265
 H        -0.540126        -1.144644         0.743245
 H         1.589925         1.867611        -0.632309
 H         1.596746         1.707504         1.176692
 H         4.471941        -0.887972         0.137276
 H         2.364333        -0.936859         2.059521
 H         2.759538        -3.019263        -0.132725
 H         0.960777        -2.599232         0.031241
 H         2.629861        -0.713158        -2.903223
