19
Iteration:  4766
 C        -0.227249        -0.067194         0.255480
 C         1.281114        -0.080247         0.222698
 C         1.932608         1.344174         0.106662
 O         3.293350         1.127990        -0.004003
 C         3.352786        -0.391379         0.032479
 C         2.339268        -0.990265         1.052082
 C         2.179495        -2.213288         0.007263
 C         2.192205        -0.908781        -0.852805
 O         1.980600        -0.969266        -2.248188
 H        -0.682562        -1.068058        -0.122456
 H        -0.570376         0.301751         1.249016
 H        -0.477328         0.730675        -0.462360
 H         1.336205         1.692153        -0.851862
 H         1.591274         1.942844         0.995312
 H         4.415597        -0.652801        -0.110866
 H         2.553653        -1.028999         2.106725
 H         3.101611        -2.610636        -0.085032
 H         1.222021        -2.702351         0.075985
 H         2.573463        -0.320309        -2.568361
