19
Iteration:  2340
 C        -0.187085        -0.162988         0.224742
 C         1.338482        -0.118357         0.180466
 C         1.904515         1.332769         0.266482
 O         3.389099         1.071238        -0.009976
 C         3.358281        -0.452504         0.045324
 C         2.291734        -1.073257         0.980240
 C         2.071646        -2.280979        -0.069360
 C         2.175325        -0.929738        -0.870506
 O         1.945762        -0.575622        -2.246174
 H        -0.595296         0.341978         1.219153
 H        -0.534516         0.189772        -0.751416
 H        -0.638944        -1.188165         0.334039
 H         1.671452         2.102739        -0.464974
 H         2.126219         1.741661         1.305061
 H         4.465317        -0.880499         0.087310
 H         2.327828        -1.241532         2.105732
 H         2.777976        -3.018927        -0.337158
 H         1.024310        -2.655865         0.052631
 H         2.632100         0.050670        -2.469345
