19
Iteration:   503
 C        -0.227319         0.045701         0.342843
 C         1.312884         0.012389         0.170570
 C         2.138677         1.402078         0.301672
 O         3.574935         0.805299         0.156290
 C         3.319561        -0.543176        -0.095861
 C         2.218733        -1.041717         0.941357
 C         1.829363        -2.130836        -0.010314
 C         2.130865        -0.888408        -0.922101
 O         2.059987        -0.766622        -2.393972
 H        -0.469594         0.451690         1.341026
 H        -0.770029         0.784647        -0.366527
 H        -0.639346        -0.916523         0.241949
 H         1.883372         2.026218        -0.526196
 H         2.011496         1.924855         1.203886
 H         4.377474        -1.065308        -0.165869
 H         2.371873        -1.088488         2.064674
 H         2.610731        -2.918572         0.076538
 H         0.751089        -2.516309        -0.085959
 H         1.108721        -0.434825        -2.647420
