19
Iteration:  2322charge 0 multiplicity 1
 C        -0.175973        -0.227994         0.184003
 C         1.373589        -0.055463         0.201500
 C         1.982040         1.246316         0.297839
 O         3.348901         0.998042         0.099710
 C         3.388948        -0.384187        -0.016336
 C         2.358866        -1.061973         0.968268
 C         1.969170        -2.103956        -0.079396
 C         2.142850        -0.783447        -0.884356
 O         1.950120        -0.727436        -2.253629
 H        -0.550165         0.013087         1.186551
 H        -0.549469         0.490779        -0.535952
 H        -0.524688        -1.232890         0.070236
 H         1.637381         1.836732        -0.576883
 H         1.693975         1.625630         1.249275
 H         4.318441        -0.703920        -0.284309
 H         2.531018        -1.209190         2.066824
 H         2.720856        -2.945322        -0.148406
 H         0.934004        -2.522394         0.001608
 H         2.582183        -0.084826        -2.547492
