19
Iteration:  4686
 C        -0.151880        -0.282175         0.270169
 C         1.353208        -0.050511         0.172800
 C         1.904213         1.370717         0.164654
 O         3.389073         1.054782         0.049896
 C         3.354373        -0.401032        -0.022843
 C         2.313908        -0.904144         0.963009
 C         1.994946        -2.087035        -0.004514
 C         2.168960        -0.863259        -0.834481
 O         2.023329        -0.924966        -2.258115
 H        -0.277595        -0.757822         1.228357
 H        -0.777893         0.560861         0.499988
 H        -0.556496        -0.894385        -0.513330
 H         1.520364         1.911939        -0.799583
 H         1.751139         2.062234         1.012895
 H         4.369663        -0.623430        -0.014815
 H         2.274622        -0.979321         2.123383
 H         2.716045        -2.913391        -0.117317
 H         1.114445        -2.652141         0.054932
 H         2.072080        -0.038379        -2.575253
