19
Iteration:  3696
 C        -0.122549        -0.139887         0.192646
 C         1.321777        -0.161942         0.229208
 C         1.879509         1.209282         0.437604
 O         3.325050         1.028886         0.167676
 C         3.398001        -0.412827        -0.003493
 C         2.346565        -1.101323         0.901788
 C         2.173678        -2.163990        -0.247972
 C         2.161764        -0.827619        -0.947683
 O         1.878796        -0.619710        -2.237406
 H        -0.713942        -0.974940        -0.232139
 H        -0.777103        -0.036658         1.284327
 H        -0.495138         0.801658        -0.313329
 H         1.558022         1.943909        -0.276671
 H         1.627810         1.553412         1.492742
 H         4.492457        -0.792039        -0.092765
 H         2.472312        -1.281149         1.949790
 H         3.063355        -2.838982        -0.533738
 H         1.289222        -2.737163        -0.310988
 H         2.366231         0.142178        -2.518229
