19
Iteration:  2326charge 0 multiplicity 1
 C        -0.177334        -0.197243         0.201066
 C         1.348799        -0.070945         0.178729
 C         1.976055         1.260424         0.298048
 O         3.378629         1.007296         0.057085
 C         3.410077        -0.361103         0.013097
 C         2.378087        -1.093118         0.999868
 C         1.958087        -2.137289        -0.080108
 C         2.138219        -0.853100        -0.894746
 O         1.940851        -0.685017        -2.243136
 H        -0.631584         0.149653         1.107256
 H        -0.705439         0.488106        -0.589073
 H        -0.401883        -1.348116         0.075405
 H         1.486467         1.882010        -0.500864
 H         1.572597         1.661526         1.271654
 H         4.479295        -0.719634        -0.224995
 H         2.372586        -1.158792         2.057885
 H         2.725482        -2.935186        -0.137927
 H         1.001038        -2.597041        -0.081360
 H         2.659594        -0.001882        -2.515943
