19
Iteration:  1554
 C        -0.251152        -0.040611         0.279608
 C         1.352248        -0.082054         0.235902
 C         1.953418         1.297817         0.367673
 O         3.408440         0.959654         0.093741
 C         3.358142        -0.428797        -0.038133
 C         2.383635        -1.083505         0.937429
 C         1.940621        -2.121210        -0.140194
 C         2.157458        -0.834164        -0.930863
 O         2.004975        -0.827526        -2.290535
 H        -0.538092         0.755172         0.970125
 H        -0.479943         0.394246        -0.678159
 H        -0.665936        -1.000161         0.431080
 H         1.648281         2.122975        -0.276723
 H         1.796817         1.847599         1.308350
 H         4.403238        -0.831468        -0.093439
 H         2.570413        -1.253453         2.031613
 H         2.467800        -3.071724        -0.398902
 H         0.869617        -2.420056        -0.225277
 H         2.634766        -0.008932        -2.382095
