19
Iteration:  1687
 C        -0.190355         0.029221         0.450356
 C         1.238094        -0.037227         0.222041
 C         1.984964         1.318797         0.422146
 O         3.371928         0.959795        -0.001687
 C         3.293336        -0.388387        -0.002258
 C         2.141291        -1.086051         0.883713
 C         2.069331        -2.195516        -0.170701
 C         2.116415        -0.899748        -0.944462
 O         2.281087        -0.814429        -2.378601
 H        -0.354341         0.323971         1.543610
 H        -0.912908         0.629793        -0.161866
 H        -0.683036        -0.914392         0.333543
 H         1.618819         2.187591        -0.228049
 H         2.041912         1.655174         1.493935
 H         4.271574        -0.964007        -0.077428
 H         2.171022        -1.104988         1.952242
 H         2.999758        -2.789781        -0.066827
 H         1.165490        -2.834380        -0.288492
 H         1.460715        -0.265479        -2.681845
