19
Iteration:  3178charge 0 multiplicity 1
 C        -0.138116        -0.305244         0.182919
 C         1.311541        -0.070930         0.246654
 C         1.968534         1.330658         0.281092
 O         3.318828         1.007670         0.113357
 C         3.375966        -0.428471         0.020159
 C         2.347533        -1.067945         0.972915
 C         2.055299        -2.134419        -0.076127
 C         2.169362        -0.814821        -0.890040
 O         1.920606        -0.647388        -2.265985
 H        -0.674877        -0.106072         1.083828
 H        -0.575177         0.275722        -0.654987
 H        -0.401298        -1.300185        -0.024323
 H         1.554682         1.886645        -0.598295
 H         1.822435         2.088598         1.190036
 H         4.431565        -0.886969         0.012690
 H         2.419856        -0.985116         2.067931
 H         2.874572        -2.780520        -0.362469
 H         1.061967        -2.750795        -0.231283
 H         2.622347        -0.161563        -2.809221
