19
Iteration:  4469
 C        -0.135072        -0.339581         0.472377
 C         1.315849         0.002896         0.181918
 C         1.912842         1.394536         0.201542
 O         3.346729         1.033765         0.034056
 C         3.317035        -0.357807         0.018318
 C         2.246083        -1.021244         0.933063
 C         1.976740        -2.156472        -0.093367
 C         2.150646        -0.843436        -0.931937
 O         2.175780        -0.802743        -2.330757
 H        -0.789947        -0.803505        -0.182709
 H        -0.074517        -1.034979         1.307874
 H        -0.655691         0.622725         0.605251
 H         1.537538         1.960109        -0.623338
 H         1.601704         1.810121         1.176158
 H         4.176305        -0.895646        -0.217171
 H         2.142758        -0.946814         2.105314
 H         2.655101        -3.033361        -0.161273
 H         0.919030        -2.354901        -0.027524
 H         2.776690        -0.018716        -2.550137
