19
Iteration:  2731charge 0 multiplicity 1
 C        -0.161749        -0.227633         0.445649
 C         1.303274        -0.043320         0.260120
 C         1.901357         1.353476         0.286979
 O         3.276959         0.985739         0.087856
 C         3.334362        -0.410539        -0.051512
 C         2.271314        -1.050475         0.947690
 C         2.004401        -2.091653        -0.133251
 C         2.050524        -0.842333        -0.937733
 O         2.340037        -0.731627        -2.371306
 H        -0.512210        -0.001715         1.394075
 H        -0.723070         0.422153        -0.249242
 H        -0.573146        -1.181012         0.206045
 H         1.544780         2.104193        -0.349719
 H         1.842459         1.576341         1.290855
 H         4.320337        -0.754788        -0.328844
 H         2.482887        -1.242136         1.978388
 H         2.804786        -2.790181        -0.311382
 H         1.090992        -2.680815        -0.035586
 H         1.472259        -0.616384        -2.801802
