19
Iteration:   356charge 0 multiplicity 1
 C        -0.115953         0.255239         0.226323
 C         1.397417        -0.030830         0.127830
 C         2.059579         1.339560         0.254596
 O         3.550313         0.871250         0.250522
 C         3.327773        -0.617986        -0.125556
 C         2.300811        -1.083269         0.925515
 C         1.785056        -2.214578         0.021378
 C         2.077128        -0.921954        -0.959193
 O         1.985460        -0.712803        -2.252538
 H        -0.500386         0.368570         1.256857
 H        -0.341316         1.107821        -0.361707
 H        -0.745165        -0.543829        -0.351562
 H         1.881947         1.985201        -0.585195
 H         1.888496         1.871719         1.205466
 H         4.315031        -1.021025        -0.257917
 H         2.538735        -1.072227         2.026917
 H         2.448404        -3.075932        -0.239258
 H         0.803610        -2.620294         0.328290
 H         1.220829        -1.106486        -2.560932
