19
Iteration:  3086charge 0 multiplicity 1
 C        -0.206636        -0.325848         0.409530
 C         1.277824         0.004118         0.116220
 C         1.929712         1.314446         0.292255
 O         3.359417         0.973498         0.192600
 C         3.326817        -0.387951        -0.013974
 C         2.341637        -1.003540         0.913558
 C         1.938176        -1.996855        -0.080696
 C         2.172564        -0.813742        -0.981568
 O         2.170536        -0.838893        -2.403267
 H        -0.584341         0.085140         1.422923
 H        -0.895574        -0.033842        -0.390592
 H        -0.434067        -1.499070         0.553058
 H         1.647484         2.253759        -0.360152
 H         1.706020         1.781420         1.274348
 H         4.298172        -0.766886        -0.034277
 H         2.517120        -1.126151         1.964013
 H         2.715700        -2.909374        -0.305335
 H         0.967788        -2.403317        -0.091940
 H         2.280517         0.122347        -2.456794
