19
Iteration:  4236charge 0 multiplicity 1
 C        -0.165839        -0.331219         0.215688
 C         1.347136        -0.109473         0.212860
 C         1.948636         1.320981         0.436766
 O         3.440555         1.065683         0.212217
 C         3.336373        -0.342688        -0.037801
 C         2.322330        -1.040433         0.898636
 C         2.000157        -2.153245        -0.146070
 C         2.199977        -0.766932        -0.942233
 O         1.931381        -0.738961        -2.328629
 H        -0.860235         0.336535         0.101963
 H        -0.485515        -0.858971        -0.704914
 H        -0.374164        -1.085384         0.974589
 H         1.640645         2.126704        -0.238542
 H         1.897762         1.733423         1.525712
 H         4.360526        -0.840280        -0.217144
 H         2.342439        -1.021774         1.909427
 H         2.793509        -2.951859        -0.350639
 H         0.977511        -2.477967         0.120148
 H         1.948035         0.039783        -2.833231
