19
Iteration:  4678
 C        -0.190669        -0.222790         0.370350
 C         1.310512        -0.036268         0.173213
 C         1.874151         1.342200         0.090375
 O         3.362464         1.021538         0.055309
 C         3.385774        -0.321029        -0.000759
 C         2.325242        -0.976395         0.987372
 C         2.025673        -2.141783         0.009511
 C         2.206229        -0.866829        -0.889874
 O         2.035397        -0.885858        -2.296515
 H        -0.436513        -0.905928         1.266850
 H        -0.751626         0.728651         0.210751
 H        -0.577013        -0.922884        -0.430384
 H         1.540091         1.959822        -0.792600
 H         1.854147         1.964002         0.995656
 H         4.350971        -0.742082         0.008085
 H         2.355546        -1.001836         2.104657
 H         2.752919        -2.900607         0.007757
 H         1.025300        -2.483831         0.263907
 H         2.333092        -0.047205        -2.585907
