19
Iteration:   624
 C        -0.158348        -0.032524         0.460103
 C         1.352171        -0.013095         0.258504
 C         2.105872         1.312035         0.094311
 O         3.462915         0.887099         0.079489
 C         3.362097        -0.566756        -0.026242
 C         2.284097        -1.107754         1.000798
 C         1.732877        -2.116205        -0.172225
 C         2.066537        -0.811258        -0.886612
 O         2.099019        -0.597993        -2.281672
 H        -0.485284         0.672253         1.202186
 H        -0.821406         0.238076        -0.423191
 H        -0.405732        -0.930701         0.885975
 H         1.926670         1.780345        -0.894893
 H         1.900841         2.026407         0.967855
 H         4.371929        -1.133278        -0.189083
 H         2.105492        -1.229493         2.080855
 H         2.281390        -3.071401        -0.397930
 H         0.653973        -2.462415        -0.139831
 H         2.597904        -1.334593        -2.524957
