19
Iteration:  3883charge 0 multiplicity 1
 C        -0.125691        -0.454237         0.210919
 C         1.384628        -0.094969         0.208457
 C         1.985860         1.248730         0.501659
 O         3.419937         0.955381         0.275176
 C         3.379746        -0.424151        -0.032747
 C         2.291815        -1.098126         0.892203
 C         2.010721        -2.081829        -0.250906
 C         2.106468        -0.711449        -0.944477
 O         1.883515        -0.469225        -2.341449
 H        -0.651783         0.400948         0.543137
 H        -0.416212        -0.764153        -0.808025
 H        -0.278613        -1.378702         0.764637
 H         1.735581         1.980720        -0.466818
 H         1.885629         1.729361         1.452539
 H         4.299041        -0.855959         0.108301
 H         2.384214        -1.271217         1.999778
 H         2.743019        -2.792611        -0.627857
 H         1.044772        -2.719375        -0.225321
 H         2.048367         0.440519        -2.620442
