19
Iteration:  3157
 C        -0.182093        -0.109516         0.151078
 C         1.283163        -0.188374         0.209706
 C         1.926491         1.265247         0.257350
 O         3.376141         1.045038         0.157608
 C         3.303926        -0.321310        -0.096991
 C         2.377885        -1.069451         0.956804
 C         2.175389        -2.213195        -0.034123
 C         2.110856        -0.946377        -0.883417
 O         1.951074        -0.642317        -2.233647
 H        -0.633263         0.015416         1.070000
 H        -0.555517         0.684187        -0.527720
 H        -0.644781        -0.947927        -0.137156
 H         1.472257         1.964958        -0.356523
 H         1.575887         1.745102         1.274912
 H         4.366693        -0.719330        -0.278176
 H         2.451439        -1.352922         2.070086
 H         3.026542        -2.827120        -0.088512
 H         1.219118        -2.873797         0.080343
 H         2.590407         0.011459        -2.537942
