19
Iteration:  1029charge 0 multiplicity 1
 C        -0.064101        -0.019161         0.279021
 C         1.371023        -0.097709         0.279532
 C         2.071847         1.249631         0.245103
 O         3.427352         0.833036         0.116343
 C         3.405606        -0.518213        -0.082233
 C         2.229005        -1.123550         0.949992
 C         1.785662        -2.148678        -0.113982
 C         2.105905        -0.830155        -0.880949
 O         1.986812        -0.520993        -2.273679
 H        -0.410715        -0.242324        -0.741019
 H        -0.606124        -0.720306         1.109712
 H        -0.427903         0.944587         0.518461
 H         1.674365         1.855775        -0.666674
 H         1.817769         1.903705         1.084439
 H         4.406147        -1.048677        -0.046968
 H         2.402488        -1.371908         2.026098
 H         2.340824        -3.095556        -0.395000
 H         0.745295        -2.532481        -0.120891
 H         2.626882         0.312844        -2.291571
