19
Iteration:  2297charge 0 multiplicity 1
 C        -0.226118        -0.183037         0.281081
 C         1.353762         0.031223         0.278371
 C         1.967803         1.449230         0.341483
 O         3.432996         1.016208         0.268579
 C         3.326996        -0.362335        -0.047444
 C         2.331516        -1.026357         0.915529
 C         2.034250        -2.181022        -0.153570
 C         2.115667        -0.896848        -0.986078
 O         1.968709        -0.910963        -2.388281
 H        -0.762421        -0.387186         1.301353
 H        -0.615901         0.594673        -0.306412
 H        -0.426480        -1.132454        -0.152338
 H         1.709845         1.923406        -0.600231
 H         1.725946         1.942076         1.315243
 H         4.415955        -0.764744        -0.200909
 H         2.475388        -1.058578         2.037853
 H         2.873480        -2.856588        -0.235421
 H         1.077824        -2.780651        -0.140703
 H         2.305938         0.010774        -2.577859
