19
Iteration:  4490charge 0 multiplicity 1
 C        -0.228713        -0.244746         0.422960
 C         1.335269        -0.064418         0.174224
 C         1.936638         1.327370         0.193626
 O         3.276885         1.066707         0.053413
 C         3.374638        -0.394724        -0.036741
 C         2.306084        -0.990901         0.956733
 C         1.999515        -2.144840        -0.063377
 C         2.168896        -0.901797        -0.897695
 O         2.103770        -0.741911        -2.297001
 H        -0.847409        -0.321150        -0.511894
 H        -0.396054        -1.191287         0.954371
 H        -0.692709         0.683302         0.820148
 H         1.519872         1.941489        -0.611319
 H         1.742037         1.779442         1.159312
 H         4.308343        -0.859439        -0.105684
 H         2.632832        -1.206882         2.023844
 H         2.875017        -2.720458        -0.240578
 H         1.059036        -2.565766         0.037858
 H         3.050356        -0.615158        -2.553199
