19
Iteration:  3673
 C        -0.190311        -0.263992         0.130653
 C         1.299414        -0.046206         0.225800
 C         1.981433         1.292995         0.511566
 O         3.383621         1.064838         0.249533
 C         3.374003        -0.370866        -0.059644
 C         2.445959        -1.188199         0.926655
 C         2.062325        -2.149360        -0.176313
 C         2.139486        -0.739183        -0.950426
 O         1.881305        -0.730829        -2.331008
 H        -0.480019        -0.884352        -0.753293
 H        -0.821355        -0.790562         1.070376
 H        -0.756105         0.690256         0.059661
 H         1.703412         2.048611        -0.188888
 H         1.812446         1.684459         1.558623
 H         4.452527        -0.693465        -0.344753
 H         2.559972        -1.243116         1.987337
 H         2.764758        -3.046425        -0.373971
 H         1.064895        -2.531995        -0.179559
 H         2.166467         0.149234        -2.750530
