19
Iteration:  3646charge 0 multiplicity 1
 C        -0.114520        -0.360966         0.238759
 C         1.309766        -0.001456         0.182091
 C         2.014427         1.277680         0.457938
 O         3.372516         0.990571         0.270886
 C         3.332288        -0.381486        -0.058716
 C         2.332545        -1.055525         0.912640
 C         2.013239        -2.082054        -0.210624
 C         2.173433        -0.762579        -0.996283
 O         1.945892        -0.742027        -2.335295
 H        -0.625869        -0.523647        -0.721820
 H        -0.308718        -1.239394         0.761209
 H        -0.736910         0.390982         0.728955
 H         1.702127         2.179452        -0.184281
 H         1.874224         1.684409         1.443699
 H         4.291424        -0.748704        -0.159287
 H         2.393685        -1.025557         2.033225
 H         2.730698        -2.866212        -0.245915
 H         0.923994        -2.499728        -0.173255
 H         1.982700         0.214820        -2.685519
