19
Iteration:   509charge 0 multiplicity 1
 C        -0.195525         0.080778         0.306840
 C         1.317953         0.032509         0.132294
 C         2.117666         1.359096         0.341129
 O         3.553925         0.858346         0.163461
 C         3.347491        -0.541988        -0.068469
 C         2.310979        -1.078548         0.922770
 C         1.762322        -2.142165         0.029906
 C         2.105198        -0.878807        -0.931932
 O         2.045424        -0.801276        -2.410980
 H        -0.496767         0.300689         1.353305
 H        -0.594694         0.779504        -0.350927
 H        -0.643215        -0.992602         0.169861
 H         1.989694         2.130536        -0.494746
 H         1.977294         1.829650         1.426430
 H         4.260186        -0.945527        -0.256298
 H         2.313225        -0.964351         1.975264
 H         2.478265        -2.968018        -0.094372
 H         0.783194        -2.505720         0.148429
 H         1.217063        -0.408974        -2.636802
