19
Iteration:  2522charge 0 multiplicity 1
 C        -0.176924        -0.329287         0.324255
 C         1.264273        -0.001609         0.156033
 C         1.921540         1.364709         0.192692
 O         3.400695         0.943153         0.132011
 C         3.348777        -0.481867         0.041375
 C         2.301340        -1.043221         0.969803
 C         2.040279        -2.087102        -0.012850
 C         2.136140        -0.794729        -0.899005
 O         1.984837        -0.635331        -2.327949
 H        -0.394766        -0.293010         1.370612
 H        -0.762163         0.459261        -0.302810
 H        -0.507730        -1.330465        -0.237173
 H         1.860898         2.153263        -0.671757
 H         1.865417         1.947323         1.115701
 H         4.450259        -0.875194        -0.206310
 H         2.379610        -1.174127         2.074761
 H         2.902249        -2.811058        -0.349520
 H         1.095054        -2.690292        -0.199215
 H         2.963148        -0.680153        -2.646751
