19
Iteration:  2878charge 0 multiplicity 1
 C        -0.218793        -0.292844         0.354693
 C         1.248138        -0.082921         0.202501
 C         1.965381         1.294025         0.253582
 O         3.400313         1.018249         0.067748
 C         3.330966        -0.427482        -0.017950
 C         2.309262        -1.051929         1.008109
 C         2.008855        -2.075880        -0.146205
 C         2.072696        -0.830610        -0.947847
 O         2.132354        -0.686216        -2.295223
 H        -0.462534         0.210500         1.350145
 H        -0.764403         0.238622        -0.383588
 H        -0.529333        -1.373073         0.416365
 H         1.507686         2.089638        -0.355182
 H         1.831319         1.592906         1.332535
 H         4.285745        -0.900627        -0.459135
 H         2.348088        -1.114927         2.133697
 H         2.925806        -2.750704        -0.336801
 H         0.953719        -2.516655        -0.094270
 H         2.837401        -0.027950        -2.376075
