19
Iteration:  4397charge 0 multiplicity 1
 C        -0.204292        -0.112079         0.141336
 C         1.267180        -0.126616         0.194926
 C         1.933296         1.321451         0.337221
 O         3.313217         1.049747         0.160093
 C         3.394243        -0.383172         0.015566
 C         2.366425        -1.015923         0.991864
 C         2.217646        -2.182589        -0.108709
 C         2.250946        -0.866997        -0.947949
 O         1.852684        -0.820944        -2.272479
 H        -0.658072        -1.082071         0.522008
 H        -0.478553         0.588596         0.923355
 H        -0.522352        -0.001381        -0.896636
 H         1.453061         1.978534        -0.432521
 H         1.837851         1.827297         1.283072
 H         4.481414        -0.711981        -0.176956
 H         2.509485        -1.314617         2.040621
 H         3.025762        -2.874301        -0.331338
 H         1.199543        -2.652360        -0.023052
 H         1.842584         0.116559        -2.523126
