19
Iteration:  3117
 C        -0.183929        -0.145707         0.318626
 C         1.323981        -0.096830         0.233147
 C         1.936747         1.291449         0.360184
 O         3.309891         1.093507         0.110960
 C         3.308631        -0.339229         0.002691
 C         2.237995        -1.110149         0.928680
 C         2.108746        -2.141842        -0.153503
 C         2.175286        -0.849169        -0.955054
 O         2.065114        -0.865575        -2.327940
 H        -0.494722         0.248427         1.329320
 H        -0.559248         0.638027        -0.428605
 H        -0.556022        -1.216757         0.056316
 H         1.594245         2.082972        -0.426743
 H         1.928665         1.837583         1.290606
 H         4.306475        -0.696450        -0.003126
 H         2.294777        -1.298178         2.066022
 H         3.026382        -2.765200        -0.354053
 H         1.258188        -2.717794        -0.286061
 H         2.361986         0.079956        -2.514910
