19
Iteration:  2808charge 0 multiplicity 1
 C        -0.265483        -0.064647         0.163258
 C         1.349213        -0.153801         0.239801
 C         1.913033         1.375973         0.263001
 O         3.335757         1.021579         0.232903
 C         3.435907        -0.380976        -0.036978
 C         2.399492        -1.178060         0.972118
 C         2.214296        -2.218642        -0.127079
 C         2.161159        -0.876804        -0.902418
 O         1.856925        -0.636478        -2.239004
 H        -0.769042         0.504973         0.856030
 H        -0.487856         0.441693        -0.807617
 H        -0.850291        -0.922341         0.080416
 H         1.614710         1.863759        -0.667662
 H         1.581316         2.091981         1.152080
 H         4.398614        -0.783181        -0.259328
 H         2.417535        -1.344999         2.059066
 H         3.142497        -2.671487        -0.267636
 H         1.306994        -2.789089        -0.175733
 H         2.123598        -1.436596        -2.645083
