19
Iteration:  2230charge 0 multiplicity 1
 C        -0.261194        -0.187075         0.343095
 C         1.234428        -0.104968         0.277989
 C         1.928680         1.336146         0.281790
 O         3.431528         1.006908         0.035925
 C         3.329610        -0.405508        -0.027501
 C         2.354870        -1.114709         0.998332
 C         1.997284        -2.153647        -0.107164
 C         2.100283        -0.844973        -0.876163
 O         2.154154        -0.687816        -2.360659
 H        -0.666340         0.253240         1.307891
 H        -0.555420         0.557504        -0.366798
 H        -0.741474        -1.158368         0.249459
 H         1.676594         1.825385        -0.650638
 H         1.715813         1.846691         1.246654
 H         4.285475        -0.944804        -0.417554
 H         2.458573        -1.307731         2.042572
 H         2.764046        -2.903475        -0.269252
 H         1.030452        -2.618167         0.028968
 H         2.512059         0.187383        -2.586343
