19
Iteration:  2967
 C        -0.200814        -0.325898         0.246836
 C         1.338535        -0.026507         0.291409
 C         2.007558         1.348364         0.352315
 O         3.406844         1.063193         0.181358
 C         3.355266        -0.364904         0.016337
 C         2.234547        -1.078002         0.922981
 C         2.027289        -2.095605        -0.141296
 C         2.164702        -0.760822        -0.964634
 O         1.960153        -0.852958        -2.356514
 H        -0.593207        -0.212458         1.276422
 H        -0.626665         0.275349        -0.462979
 H        -0.407716        -1.403324        -0.078731
 H         1.642980         2.014482        -0.519639
 H         2.056924         1.976448         1.418146
 H         4.349580        -0.746901        -0.071172
 H         2.302767        -1.094761         1.942315
 H         2.944857        -2.802551        -0.248748
 H         1.039125        -2.461364        -0.217129
 H         2.345338        -0.121251        -2.844632
