19
Iteration:   162
 C        -0.160682         0.098100         0.355015
 C         1.349475        -0.042007         0.170231
 C         2.227990         1.262132         0.170053
 O         3.603792         0.865691        -0.007991
 C         3.279353        -0.545500         0.047879
 C         2.099645        -1.076086         0.993061
 C         1.832754        -2.208276        -0.064912
 C         2.060772        -0.883412        -0.874550
 O         1.970524        -0.578426        -2.240333
 H        -0.471011         0.054607         1.401339
 H        -0.583339         0.938501        -0.094610
 H        -0.627606        -0.839320        -0.128066
 H         1.857539         1.898880        -0.778199
 H         2.109343         2.023796         0.987969
 H         4.119127        -1.122238         0.188933
 H         2.158021        -1.258813         2.070059
 H         2.645575        -2.919511        -0.299427
 H         0.761790        -2.487146        -0.103022
 H         2.627051        -0.995404        -2.757544
