19
Iteration:  4752charge 0 multiplicity 1
 C        -0.150029        -0.024201         0.147424
 C         1.349396        -0.099864         0.183570
 C         1.836181         1.328021         0.179968
 O         3.293816         1.060105         0.011020
 C         3.363904        -0.284559        -0.013375
 C         2.360716        -1.012596         1.009324
 C         2.220906        -2.167311         0.088765
 C         2.147886        -0.955020        -0.850892
 O         1.936593        -0.965855        -2.209973
 H        -0.576096        -0.982654         0.120810
 H        -0.489835         0.457031         1.042313
 H        -0.607939         0.468174        -0.668455
 H         1.596381         2.023962        -0.691665
 H         1.684203         1.964354         1.091304
 H         4.304219        -0.655660        -0.100684
 H         2.306034        -1.137833         2.177283
 H         3.006927        -3.001040        -0.100614
 H         1.372641        -2.816521         0.124824
 H         2.219956        -0.101831        -2.671798
