19
Iteration:  1020
 C        -0.186543        -0.017272         0.379940
 C         1.364216        -0.026172         0.242956
 C         2.087611         1.280381         0.240109
 O         3.453315         0.836599         0.096104
 C         3.304736        -0.588759        -0.026535
 C         2.232067        -1.144896         0.916915
 C         1.863739        -2.167500        -0.190544
 C         2.093134        -0.844339        -0.911608
 O         2.069204        -0.555739        -2.251222
 H        -0.733858        -0.142676        -0.495534
 H        -0.653514        -0.753724         1.132725
 H        -0.447038         1.007142         0.651272
 H         1.728016         1.778639        -0.670935
 H         2.061806         1.982556         1.074268
 H         4.346259        -0.845159        -0.194480
 H         2.294458        -1.247732         2.034043
 H         2.615748        -2.951598        -0.276299
 H         0.803167        -2.431057        -0.167741
 H         2.573642         0.351185        -2.345052
