19
Iteration:  1344charge 0 multiplicity 1
 C        -0.181239         0.054326         0.542203
 C         1.249979        -0.038441         0.081665
 C         1.978706         1.305522         0.154075
 O         3.442726         0.895886         0.048338
 C         3.352073        -0.557024         0.014041
 C         2.176923        -1.011308         0.902857
 C         1.934573        -2.246922        -0.058238
 C         2.127744        -0.926254        -0.999790
 O         2.246052        -0.657439        -2.316007
 H        -0.215972        -0.299619         1.713333
 H        -0.706236         1.052296         0.662133
 H        -0.872794        -0.683926         0.081866
 H         1.835006         2.180258        -0.491813
 H         1.982740         1.781144         1.186664
 H         4.315850        -0.977783        -0.055723
 H         1.964964        -1.029411         1.972072
 H         2.558669        -3.199315         0.083205
 H         0.857614        -2.486982         0.085474
 H         1.662066         0.030097        -2.536551
