19
Iteration:   110
 C        -0.134642         0.132273         0.427807
 C         1.364689        -0.011939         0.282485
 C         2.122039         1.363156         0.285953
 O         3.490119         0.886281         0.135500
 C         3.328632        -0.512088        -0.079859
 C         2.190236        -1.091798         0.943574
 C         1.715320        -2.120230        -0.191288
 C         2.118464        -0.890397        -0.916819
 O         2.052415        -0.853574        -2.345070
 H        -0.312692         0.527447         1.464299
 H        -0.478099         0.950293        -0.272172
 H        -0.817000        -0.767480         0.319893
 H         1.982205         2.009206        -0.538997
 H         2.046345         1.899716         1.253480
 H         4.312198        -0.862793        -0.431979
 H         2.220159        -1.292090         1.951232
 H         2.319433        -3.006336        -0.272801
 H         0.670308        -2.329450        -0.341849
 H         2.974228        -0.940638        -2.723514
