19
Iteration:  2548
 C        -0.159263        -0.233572         0.425337
 C         1.287715        -0.066353         0.153544
 C         1.947953         1.283400         0.211578
 O         3.394895         1.096469         0.213533
 C         3.355540        -0.360839         0.022001
 C         2.263343        -1.021147         0.890454
 C         1.983226        -2.176636        -0.123505
 C         2.194506        -0.919102        -0.977972
 O         2.027267        -0.669851        -2.305855
 H        -0.458244         0.007519         1.453479
 H        -0.635958         0.274944        -0.371188
 H        -0.390854        -1.218817         0.195113
 H         1.752595         1.976649        -0.592346
 H         1.773019         1.702773         1.202041
 H         4.353911        -0.680058        -0.270114
 H         2.057921        -1.101729         1.957856
 H         2.606780        -3.010340        -0.219746
 H         0.950708        -2.505912        -0.247227
 H         2.812655        -1.181630        -2.769010
