19
Iteration:   718
 C        -0.189777        -0.018507         0.099742
 C         1.406461        -0.033387         0.239177
 C         2.116592         1.326910         0.335694
 O         3.586556         0.895502         0.165673
 C         3.316921        -0.530880        -0.015644
 C         2.329599        -1.079948         0.981745
 C         1.943320        -2.114245        -0.062205
 C         2.084490        -0.840928        -0.913832
 O         1.824052        -0.726271        -2.322456
 H        -0.837520         0.292963         1.031148
 H        -0.386863         0.556364        -0.794269
 H        -0.661583        -1.111991         0.046575
 H         1.743152         1.989208        -0.469452
 H         2.121256         1.846605         1.261918
 H         4.337392        -1.052816        -0.083604
 H         2.425757        -1.285541         2.116662
 H         2.672579        -2.917066        -0.187461
 H         0.861237        -2.422973         0.085946
 H         1.126793         0.032167        -2.398953
