19
Iteration:  3046charge 0 multiplicity 1
 C        -0.239888        -0.121043         0.344114
 C         1.308382        -0.123182         0.176091
 C         1.926816         1.283937         0.199863
 O         3.301717         1.034299         0.086123
 C         3.346349        -0.408717         0.014336
 C         2.270955        -1.129939         0.968976
 C         2.147801        -2.179457        -0.188744
 C         2.158799        -0.862557        -0.872136
 O         2.066246        -0.674949        -2.205314
 H        -0.538734         0.626340         1.059680
 H        -0.660500         0.214960        -0.605503
 H        -0.512522        -1.106389         0.595842
 H         1.600210         1.979105        -0.622443
 H         1.628916         1.985107         1.121409
 H         4.393940        -0.760299        -0.083350
 H         2.492504        -1.455876         1.978792
 H         2.961272        -2.865983        -0.370664
 H         1.218149        -2.804639        -0.184488
 H         2.549170         0.075440        -2.613235
