19
Iteration:   309
 C        -0.143997         0.016733         0.417501
 C         1.359799         0.071925         0.103809
 C         2.233834         1.356106         0.066851
 O         3.572852         0.831939         0.047294
 C         3.269334        -0.587999         0.057027
 C         2.083310        -1.068557         0.937158
 C         1.738566        -2.177271        -0.109300
 C         2.078663        -0.865770        -0.847527
 O         2.091692        -0.599461        -2.170162
 H        -0.204233         0.415270         1.426150
 H        -0.873177         0.539510        -0.308597
 H        -0.564376        -0.952673         0.424279
 H         2.185364         2.022228        -0.878444
 H         2.145919         1.955659         1.070691
 H         4.244913        -1.292801        -0.060641
 H         2.158375        -1.280605         2.040599
 H         2.374497        -3.008363        -0.103066
 H         0.720699        -2.512345        -0.364315
 H         1.807994        -1.393707        -2.709889
