19
Iteration:  2250
 C        -0.161201        -0.027131         0.395696
 C         1.288193        -0.087350         0.150853
 C         1.939792         1.309636         0.312086
 O         3.277984         1.040823         0.143182
 C         3.382670        -0.395540        -0.016848
 C         2.275740        -1.036691         0.921921
 C         2.026321        -2.236385        -0.143851
 C         2.211361        -0.902407        -0.956483
 O         2.095697        -0.799177        -2.334874
 H        -0.362323        -0.014755         1.426496
 H        -0.623242         0.819973        -0.172735
 H        -0.552969        -1.048505         0.103131
 H         1.512119         1.959396        -0.421083
 H         1.785253         1.635478         1.374833
 H         4.412152        -0.808737        -0.084015
 H         2.404013        -1.160623         1.950457
 H         2.817546        -2.980919        -0.225116
 H         1.087480        -2.703708        -0.176466
 H         2.041354         0.091336        -2.597357
