19
Iteration:  1861
 C        -0.107422        -0.156691         0.489647
 C         1.292763        -0.069010         0.085104
 C         1.971984         1.338142         0.300541
 O         3.391828         0.971183         0.126315
 C         3.277435        -0.429329         0.024138
 C         2.125092        -1.009753         0.954520
 C         1.991115        -2.106769        -0.119577
 C         2.111975        -0.871011        -1.002283
 O         2.262906        -0.777544        -2.398202
 H        -0.312501        -0.202494         1.605275
 H        -0.856477         0.511148         0.170489
 H        -0.458593        -1.099414         0.316644
 H         1.743623         2.030622        -0.474569
 H         1.845883         1.689295         1.337736
 H         4.260953        -0.874666         0.009978
 H         1.998728        -0.843129         1.965874
 H         2.783319        -2.678867        -0.466309
 H         1.067135        -2.616592        -0.124853
 H         1.562082        -0.216328        -2.707979
