19
Iteration:   818charge 0 multiplicity 1
 C        -0.092683         0.082005         0.544269
 C         1.280082         0.021202         0.084490
 C         2.043878         1.280919         0.373893
 O         3.413507         0.917004         0.080316
 C         3.289008        -0.519210         0.030732
 C         2.114119        -0.988423         0.877030
 C         1.913458        -2.132967        -0.110839
 C         2.164913        -0.916730        -1.002566
 O         2.113892        -0.850971        -2.439978
 H        -0.039459        -0.275634         1.666981
 H        -0.756397         1.050481         0.547473
 H        -0.712435        -0.649823        -0.030098
 H         1.790663         2.218971        -0.111668
 H         1.919705         1.510664         1.402146
 H         4.297434        -0.902038        -0.089503
 H         1.978760        -0.954806         1.949468
 H         2.760490        -2.852038        -0.241227
 H         0.869770        -2.497193        -0.164161
 H         2.953047        -0.487068        -2.677427
