19
Iteration:  2323charge 0 multiplicity 1
 C        -0.177570        -0.220631         0.189458
 C         1.369397        -0.056655         0.195799
 C         1.982312         1.247884         0.299778
 O         3.355286         0.998765         0.088933
 C         3.397510        -0.377135        -0.009114
 C         2.363998        -1.070347         0.976987
 C         1.963926        -2.110433        -0.079827
 C         2.141076        -0.797767        -0.887613
 O         1.947003        -0.718586        -2.250357
 H        -0.559610         0.035442         1.144188
 H        -0.589605         0.505120        -0.554301
 H        -0.497433        -1.274875         0.077877
 H         1.597020         1.842571        -0.567540
 H         1.656989         1.617508         1.240549
 H         4.326938        -0.693894        -0.267578
 H         2.494665        -1.196677         2.058349
 H         2.731832        -2.953339        -0.139235
 H         0.953844        -2.539562        -0.018935
 H         2.613188        -0.055232        -2.538951
