19
Iteration:  1684charge 0 multiplicity 1
 C        -0.231328         0.034064         0.447059
 C         1.240111        -0.031911         0.199430
 C         1.996049         1.323132         0.410251
 O         3.371631         0.962244         0.013428
 C         3.309846        -0.399975        -0.033083
 C         2.155147        -1.114331         0.893384
 C         2.084990        -2.181271        -0.147196
 C         2.101892        -0.887747        -0.940047
 O         2.278747        -0.813801        -2.378283
 H        -0.333722         0.265648         1.703682
 H        -0.936415         0.674672        -0.144519
 H        -0.697902        -0.972616         0.303343
 H         1.615626         2.193003        -0.292713
 H         2.076434         1.555205         1.532542
 H         4.281379        -0.983477        -0.018155
 H         2.101861        -1.034914         2.017612
 H         2.991340        -2.766017        -0.109341
 H         1.175953        -2.724253        -0.364456
 H         1.503015        -0.342956        -2.684288
