19
Iteration:  1754
 C        -0.098647        -0.230685         0.159616
 C         1.354466         0.022334         0.216986
 C         2.055049         1.389453         0.222471
 O         3.441807         0.879979         0.214953
 C         3.349236        -0.443034         0.112195
 C         2.263613        -1.036575         0.986822
 C         2.026089        -2.185092        -0.119844
 C         2.116789        -0.833266        -0.904554
 O         1.781421        -0.637956        -2.315146
 H        -0.611279         0.521900         0.792993
 H        -0.463332        -0.271656        -0.920070
 H        -0.278677        -1.264107         0.573762
 H         1.879371         1.907167        -0.783258
 H         1.911204         2.111874         1.052124
 H         4.302704        -0.862653        -0.130557
 H         2.419403        -1.223541         2.036768
 H         2.924281        -2.848472        -0.141493
 H         1.101378        -2.823479        -0.158876
 H         2.488558        -0.167188        -2.718615
