19
Iteration:  4115
 C        -0.153037        -0.362646         0.526536
 C         1.274888        -0.026859         0.168400
 C         1.887214         1.329837         0.350727
 O         3.317695         1.015009         0.136977
 C         3.341455        -0.444981         0.011761
 C         2.281359        -1.042077         0.896556
 C         1.883984        -2.071261        -0.274957
 C         2.195527        -0.797164        -1.009380
 O         2.229614        -0.687728        -2.380230
 H        -0.730496        -1.050624        -0.089659
 H        -0.173539        -1.072682         1.479818
 H        -0.862349         0.554715         0.773524
 H         1.491345         2.114416        -0.200821
 H         1.856840         1.618285         1.404598
 H         4.481151        -0.606983        -0.085848
 H         2.376113        -1.318310         1.931893
 H         2.780455        -2.795750        -0.359057
 H         0.897073        -2.741524        -0.262874
 H         2.645425         0.196138        -2.669687
