19
Iteration:  3328charge 0 multiplicity 1
 C        -0.113673        -0.301311         0.175853
 C         1.368310        -0.057742         0.221450
 C         1.980069         1.330735         0.261528
 O         3.332727         1.004602         0.189621
 C         3.375879        -0.357039         0.016702
 C         2.344915        -1.057321         0.949895
 C         2.079275        -2.109245        -0.110920
 C         2.137857        -0.831232        -0.890709
 O         1.853309        -0.727681        -2.248701
 H        -0.703546        -0.498422         1.123082
 H        -0.679868         0.573606        -0.131357
 H        -0.329612        -1.112919        -0.627166
 H         1.626800         1.835598        -0.705683
 H         1.728276         2.005854         1.261411
 H         4.392215        -0.849921        -0.029951
 H         2.475160        -1.208566         1.983017
 H         2.838778        -2.766952        -0.501150
 H         1.054419        -2.501263        -0.179317
 H         2.597819        -0.161187        -2.648153
