19
Iteration:   449charge 0 multiplicity 1
 C        -0.160025         0.147322         0.414302
 C         1.378007        -0.091616         0.224294
 C         2.145648         1.220124         0.085781
 O         3.440234         0.842225         0.124462
 C         3.326937        -0.571217        -0.042857
 C         2.256889        -1.085746         0.939652
 C         1.727250        -2.172011        -0.036691
 C         2.177419        -0.932440        -0.911064
 O         2.055308        -0.472454        -2.248193
 H        -0.422739         0.930608         1.136459
 H        -0.630413         0.279390        -0.667600
 H        -0.677617        -0.735165         0.601364
 H         1.797884         1.615004        -0.876416
 H         1.852488         1.905732         0.792139
 H         4.407989        -1.066550        -0.097484
 H         2.366240        -1.098497         2.053521
 H         2.258044        -3.136881        -0.100719
 H         0.607789        -2.374435         0.013111
 H         2.347080        -1.256685        -2.874680
