19
Iteration:  3323
 C        -0.142320        -0.329786         0.157023
 C         1.334102        -0.052833         0.223179
 C         1.981539         1.350391         0.288138
 O         3.367263         1.027872         0.204174
 C         3.400611        -0.390799        -0.014770
 C         2.331040        -1.009897         0.937928
 C         2.031948        -2.155928        -0.123159
 C         2.156495        -0.807588        -0.883310
 O         1.866417        -0.729030        -2.253070
 H        -0.566887        -0.529466         1.118822
 H        -0.797388         0.517827        -0.199440
 H        -0.359850        -1.155169        -0.449400
 H         1.693458         1.902487        -0.574049
 H         1.746089         1.958201         1.115851
 H         4.395593        -0.744504        -0.154679
 H         2.619676        -1.157213         2.044318
 H         2.872843        -2.868159        -0.394970
 H         1.047463        -2.643064        -0.100346
 H         2.537122        -0.154795        -2.561044
