19
Iteration:  2630charge 0 multiplicity 1
 C        -0.083865        -0.290573         0.121648
 C         1.371073        -0.042250         0.219404
 C         1.902774         1.336051         0.342128
 O         3.355621         0.988974         0.126702
 C         3.402156        -0.457216         0.018085
 C         2.386302        -0.991672         0.975661
 C         1.958076        -2.168587        -0.095548
 C         2.163510        -0.872814        -0.961701
 O         1.934777        -0.569600        -2.264813
 H        -0.656659         0.306029         0.817350
 H        -0.461400         0.288731        -0.753067
 H        -0.378499        -1.419291         0.272898
 H         1.510189         2.184857        -0.221821
 H         1.725697         1.806549         1.339145
 H         4.462452        -0.893087         0.088395
 H         2.434888        -0.998764         2.087287
 H         2.918793        -2.734973        -0.296865
 H         1.076355        -2.827300         0.031907
 H         1.577231        -1.419980        -2.516891
