19
Iteration:  1669
 C        -0.322578        -0.038320         0.467757
 C         1.277520        -0.040143         0.087351
 C         2.032456         1.269543         0.333615
 O         3.397250         0.986185         0.104882
 C         3.305083        -0.461822        -0.052950
 C         2.230894        -1.025248         0.960836
 C         2.024658        -2.154461        -0.128512
 C         2.169239        -0.818186        -0.974153
 O         2.242252        -0.799807        -2.326885
 H        -0.443358         0.085343         1.513156
 H        -0.771087         0.870267         0.072894
 H        -0.933120        -0.919637         0.085768
 H         1.752947         2.107114        -0.183075
 H         1.803442         1.614369         1.333260
 H         4.256289        -0.835275        -0.309780
 H         2.298970        -1.307570         2.018474
 H         2.835757        -2.865592        -0.416447
 H         1.082748        -2.738884        -0.010406
 H         1.345925        -0.621690        -2.808828
