19
Iteration:  1346
 C        -0.171095         0.046652         0.544292
 C         1.269808        -0.046802         0.095581
 C         1.974805         1.301436         0.156486
 O         3.443943         0.904408         0.054979
 C         3.351182        -0.542688         0.012632
 C         2.161795        -1.012786         0.908752
 C         1.936212        -2.242282        -0.059992
 C         2.122699        -0.926699        -1.005328
 O         2.237003        -0.665627        -2.325520
 H        -0.262285        -0.306726         1.598782
 H        -0.651544         1.119134         0.621725
 H        -0.819291        -0.652173         0.134088
 H         1.858473         2.153307        -0.449451
 H         1.957834         1.789648         1.149846
 H         4.258429        -1.021428        -0.038173
 H         1.944728        -0.993382         1.961267
 H         2.562721        -3.219408         0.015481
 H         0.867365        -2.522312         0.150694
 H         1.710609         0.051364        -2.584014
