19
Iteration:  2887
 C        -0.227408        -0.223923         0.390394
 C         1.299247        -0.074414         0.211722
 C         1.908690         1.289722         0.277516
 O         3.363124         0.986197         0.032795
 C         3.302931        -0.388864        -0.029424
 C         2.297066        -1.051185         0.943076
 C         2.047554        -2.158281        -0.199111
 C         2.110645        -0.794541        -0.857284
 O         2.171729        -0.702861        -2.262787
 H        -0.537891         0.211268         1.339252
 H        -0.855524         0.342194        -0.282273
 H        -0.632320        -1.199422         0.411024
 H         1.636618         1.957765        -0.574651
 H         1.877905         1.937291         1.323739
 H         4.296694        -0.879074        -0.294062
 H         2.236934        -1.324236         2.065778
 H         2.819559        -2.884371        -0.489648
 H         1.103498        -2.810906        -0.088939
 H         2.688552         0.081900        -2.500142
