19
Iteration:   204charge 0 multiplicity 1
 C        -0.089991         0.070016         0.067933
 C         1.403466        -0.009061         0.133126
 C         2.172399         1.256586         0.220010
 O         3.607311         0.849628         0.281603
 C         3.356562        -0.531855        -0.074309
 C         2.281953        -1.062343         0.915673
 C         1.802039        -2.181425         0.018422
 C         2.020786        -0.872535        -0.873763
 O         1.738073        -0.623506        -2.209563
 H        -0.461499         0.644626         0.912995
 H        -0.369228         0.645587        -0.780620
 H        -0.595827        -0.956778         0.105597
 H         2.076799         2.010579        -0.565131
 H         1.915457         1.717050         1.161948
 H         4.281979        -1.070342        -0.243346
 H         2.653635        -0.985161         1.989713
 H         2.585513        -3.017297        -0.022634
 H         0.721761        -2.412422         0.259472
 H         2.348568        -1.079729        -2.772298
