19
Iteration:  4896
 C        -0.215933        -0.138807         0.091057
 C         1.310094        -0.093277         0.123892
 C         1.950873         1.338820         0.237879
 O         3.359064         1.131607         0.103845
 C         3.404175        -0.293584         0.038872
 C         2.398609        -0.904577         0.979020
 C         2.168121        -2.123459         0.026245
 C         2.207386        -0.914878        -0.838170
 O         1.827533        -1.067438        -2.262191
 H        -0.613018        -1.182043         0.298077
 H        -0.561548         0.406344         0.963384
 H        -0.603363         0.350609        -0.780868
 H         1.620523         1.932617        -0.577517
 H         1.744418         1.797703         1.204381
 H         4.373826        -0.784907        -0.035314
 H         2.261211        -0.911079         2.050694
 H         2.941356        -3.021374         0.032348
 H         1.288365        -2.787896         0.187060
 H         1.935724        -0.126547        -2.638847
