19
Iteration:  1987
 C        -0.095313        -0.172259         0.263671
 C         1.374365         0.011103         0.234682
 C         1.964285         1.377254         0.362969
 O         3.382615         1.039306         0.196983
 C         3.339824        -0.379687        -0.024012
 C         2.278326        -1.144909         0.908028
 C         1.999520        -2.175923        -0.186766
 C         2.118652        -0.828077        -0.904604
 O         2.021520        -0.725689        -2.295880
 H        -0.626912         0.387542         0.962343
 H        -0.558393        -0.029786        -0.770035
 H        -0.480734        -1.266983         0.247564
 H         1.500463         2.008164        -0.382652
 H         1.893465         1.960897         1.250912
 H         4.389920        -0.685304        -0.028907
 H         2.474031        -1.510061         1.951557
 H         2.771173        -2.810758        -0.587296
 H         1.039017        -2.691913        -0.187151
 H         1.435945        -1.470452        -2.639076
