19
Iteration:  2840charge 0 multiplicity 1
 C        -0.135758        -0.199736         0.213341
 C         1.379545        -0.112512         0.154373
 C         1.947998         1.338280         0.333480
 O         3.368007         1.054681         0.172506
 C         3.363712        -0.412693        -0.028826
 C         2.276988        -1.081637         0.952025
 C         2.069700        -2.166168        -0.076347
 C         2.172149        -0.871092        -0.906999
 O         1.873954        -0.667385        -2.293344
 H        -0.618207         0.378440         0.967624
 H        -0.553817         0.140149        -0.777778
 H        -0.429035        -1.236201         0.326824
 H         1.627139         2.108617        -0.395237
 H         1.771183         1.759260         1.459399
 H         4.390702        -0.692575        -0.129630
 H         2.358624        -1.176374         2.032044
 H         2.886895        -2.848206        -0.133773
 H         1.144391        -2.686173        -0.155150
 H         2.706210        -0.724587        -2.874835
