19
Iteration:   873charge 0 multiplicity 1
 C        -0.050823        -0.053379         0.120623
 C         1.402625        -0.054754         0.304796
 C         2.080041         1.328968         0.216526
 O         3.425292         0.881253         0.185621
 C         3.363485        -0.557232        -0.057256
 C         2.323186        -1.134207         0.949665
 C         1.863683        -2.126193        -0.044844
 C         2.132104        -0.810570        -0.888319
 O         1.872925        -0.658750        -2.220405
 H        -0.607160         0.764474         0.720464
 H        -0.401918         0.352506        -0.864633
 H        -0.634381        -0.947889         0.162941
 H         1.733736         1.887304        -0.707922
 H         1.953888         1.899425         1.096182
 H         4.309380        -0.998346        -0.163568
 H         2.544309        -1.169701         1.952598
 H         2.460334        -3.020977        -0.327991
 H         0.853527        -2.518965        -0.034872
 H         1.703123         0.220310        -2.404717
