19
Iteration:  3876charge 0 multiplicity 1
 C        -0.133986        -0.485699         0.160025
 C         1.351072        -0.085976         0.286470
 C         2.018826         1.307099         0.459106
 O         3.412138         0.964783         0.295935
 C         3.358837        -0.454154         0.010920
 C         2.357246        -1.051140         0.856614
 C         2.011449        -2.125833        -0.325345
 C         2.128798        -0.742535        -0.924808
 O         1.843781        -0.488330        -2.329453
 H        -0.696517         0.511186         0.306498
 H        -0.341175        -0.478288        -0.962800
 H        -0.396871        -1.379883         0.828469
 H         1.730883         2.022409        -0.186082
 H         1.793696         1.733750         1.479132
 H         4.385023        -0.990594        -0.063398
 H         2.486317        -1.334930         1.922457
 H         2.825274        -2.817239        -0.510208
 H         1.078856        -2.587599         0.024563
 H         1.983608         0.509339        -2.498332
