19
Iteration:  4427
 C        -0.195851        -0.140261         0.333902
 C         1.291493        -0.113940         0.189945
 C         1.935305         1.305533         0.249578
 O         3.306016         1.104093         0.126097
 C         3.338461        -0.409018        -0.046161
 C         2.317652        -1.020729         0.966811
 C         2.089804        -2.163468        -0.091362
 C         2.136410        -0.881277        -0.911417
 O         2.110028        -0.812753        -2.317129
 H        -0.519959        -1.093995         0.060212
 H        -0.396421        -0.116417         1.440722
 H        -0.696651         0.676373        -0.286227
 H         1.502506         1.861499        -0.597652
 H         1.818609         1.937489         1.245991
 H         4.369740        -0.706096        -0.236562
 H         2.518081        -1.371939         2.076914
 H         2.987901        -2.896736        -0.354703
 H         1.137238        -2.824400         0.029744
 H         1.718934         0.097854        -2.543494
