19
Iteration:  2691charge 0 multiplicity 1
 C        -0.161627        -0.059225         0.418819
 C         1.326069        -0.155756         0.154684
 C         1.902092         1.253631         0.189819
 O         3.284390         1.036606         0.164517
 C         3.300445        -0.356999         0.002113
 C         2.257620        -1.104153         0.964292
 C         2.128258        -2.223514        -0.153429
 C         2.228655        -0.884794        -0.948986
 O         2.130212        -0.655669        -2.313830
 H        -0.376912         0.347074         1.507645
 H        -0.580518         0.613045        -0.403814
 H        -0.557292        -1.042404         0.300924
 H         1.621284         2.122355        -0.537006
 H         1.608271         1.715154         1.217346
 H         4.303106        -0.685058        -0.085192
 H         2.113553        -1.408252         2.027976
 H         3.121323        -2.692572        -0.178420
 H         1.154790        -2.849055        -0.149434
 H         1.242136        -0.696085        -2.764861
