19
Iteration:  4124
 C        -0.192709        -0.375809         0.528153
 C         1.260569        -0.073402         0.185188
 C         1.906449         1.335654         0.393751
 O         3.308381         1.001496         0.114718
 C         3.350600        -0.410713        -0.007407
 C         2.231094        -1.021570         0.873423
 C         1.971576        -2.084598        -0.262912
 C         2.216826        -0.800663        -1.000341
 O         2.214983        -0.679259        -2.380579
 H        -0.748072        -0.907219        -0.252484
 H        -0.103076        -0.980836         1.460693
 H        -0.633522         0.547657         1.004756
 H         1.720617         2.012723        -0.433845
 H         1.658204         1.861043         1.391692
 H         4.217006        -1.016586        -0.063056
 H         2.361579        -1.191372         2.005783
 H         2.735010        -2.870885        -0.385170
 H         0.876339        -2.509645        -0.408749
 H         2.664629         0.222942        -2.518040
