19
Iteration:  4446
 C        -0.237337        -0.268896         0.484588
 C         1.232497        -0.026825         0.205841
 C         1.913367         1.364918         0.205325
 O         3.357128         1.000162         0.068882
 C         3.347063        -0.381494        -0.015764
 C         2.345099        -1.027347         0.957465
 C         1.992443        -2.131955        -0.076600
 C         2.193423        -0.845822        -1.005045
 O         2.185559        -0.800429        -2.321486
 H        -0.723570        -1.009317        -0.134688
 H        -0.388992        -0.719237         1.460988
 H        -0.700671         0.646207         0.091780
 H         1.639536         1.988833        -0.635780
 H         1.629667         1.826486         1.160927
 H         4.344787        -0.702480        -0.017918
 H         2.320380        -0.938205         2.079892
 H         2.788669        -2.873789        -0.119969
 H         1.019275        -2.559751        -0.187369
 H         2.010646         0.099007        -2.654321
