19
Iteration:  4883charge 0 multiplicity 1
 C        -0.210657        -0.065211         0.159692
 C         1.333089        -0.136487         0.117738
 C         1.857751         1.323899         0.189931
 O         3.347030         1.071922         0.072580
 C         3.353954        -0.301328        -0.014694
 C         2.324304        -0.962431         1.050990
 C         2.247334        -2.151405         0.130946
 C         2.207695        -0.932866        -0.932079
 O         1.893710        -1.019071        -2.249695
 H        -0.837646        -0.929228        -0.105608
 H        -0.526336         0.421004         1.100664
 H        -0.467074         0.679688        -0.618858
 H         1.603514         2.067493        -0.494247
 H         1.669999         1.730373         1.186622
 H         4.351131        -0.588733        -0.122689
 H         2.684145        -0.952730         2.163353
 H         3.213335        -2.786505        -0.006026
 H         1.224185        -2.458241         0.058156
 H         1.921841        -0.185278        -2.681118
