19
Iteration:  3695charge 0 multiplicity 1
 C        -0.126676        -0.138505         0.185096
 C         1.326817        -0.164722         0.228696
 C         1.883178         1.211113         0.438656
 O         3.321732         1.017749         0.169842
 C         3.397935        -0.407341        -0.002893
 C         2.351352        -1.093934         0.901966
 C         2.167847        -2.151042        -0.246714
 C         2.167258        -0.827278        -0.945583
 O         1.876659        -0.625075        -2.235511
 H        -0.723662        -0.971035        -0.253369
 H        -0.776151        -0.083893         1.293990
 H        -0.499205         0.796493        -0.303683
 H         1.534706         1.966471        -0.241247
 H         1.634989         1.547245         1.464874
 H         4.499351        -0.792886        -0.099506
 H         2.493290        -1.312106         1.938345
 H         3.080229        -2.830012        -0.565006
 H         1.263840        -2.719848        -0.293478
 H         2.355592         0.124821        -2.522122
