19
Iteration:  3563charge 0 multiplicity 1
 C        -0.185022        -0.271452         0.431265
 C         1.284734        -0.107463         0.241512
 C         1.896993         1.339073         0.292520
 O         3.372396         1.088621         0.084613
 C         3.342860        -0.407168        -0.074547
 C         2.201434        -1.104838         0.943818
 C         2.021119        -2.224673        -0.185704
 C         2.217378        -0.873263        -0.935606
 O         2.092606        -0.578211        -2.301466
 H        -0.436197         0.741553         0.651960
 H        -0.742862        -0.665307        -0.486755
 H        -0.435420        -0.908502         1.255253
 H         1.468194         1.921614        -0.532632
 H         1.896913         1.715847         1.386006
 H         4.363784        -0.827152        -0.209456
 H         2.315978        -1.222568         2.037900
 H         2.792362        -3.029663        -0.295918
 H         1.137524        -2.761484        -0.237566
 H         2.896681        -0.177612        -2.585700
