19
Iteration:  3272charge 0 multiplicity 1
 C        -0.155298        -0.105632         0.379280
 C         1.345732        -0.106354         0.202687
 C         1.867882         1.313042         0.353886
 O         3.305116         1.064282         0.034969
 C         3.302249        -0.402063         0.001917
 C         2.272002        -1.126458         0.941266
 C         2.099754        -2.186721        -0.201085
 C         2.215269        -0.833579        -0.933299
 O         2.115022        -0.769485        -2.286335
 H        -0.652246         0.415969         1.265199
 H        -0.582901         0.245264        -0.522896
 H        -0.663368        -1.186299         0.539090
 H         1.315769         2.123520        -0.191278
 H         1.713011         1.728696         1.468044
 H         4.323425        -0.808093        -0.054080
 H         2.242147        -1.270226         1.984952
 H         2.928213        -2.905781        -0.385395
 H         1.225285        -2.711542        -0.430248
 H         2.116739         0.170449        -2.516544
