19
Iteration:  3593
 C        -0.201052        -0.117580         0.451869
 C         1.272944        -0.129520         0.245456
 C         1.774056         1.275087         0.228685
 O         3.285437         0.966883         0.155002
 C         3.360309        -0.464304        -0.101799
 C         2.361532        -1.189612         0.945860
 C         2.110319        -2.160920        -0.186408
 C         2.163082        -0.824343        -0.949366
 O         2.153941        -0.562293        -2.307194
 H        -0.570016         0.944807         0.193554
 H        -0.956547        -0.882538        -0.069924
 H        -0.397333        -0.034830         1.541228
 H         1.390637         1.796656        -0.641316
 H         1.682152         1.856554         1.091596
 H         4.283521        -0.819804        -0.360733
 H         2.472768        -1.421852         2.048775
 H         3.018637        -2.749546        -0.350046
 H         1.182491        -2.885263        -0.094239
 H         2.822231         0.202398        -2.461292
