19
Iteration:   378
 C        -0.110514         0.184494         0.160586
 C         1.349623         0.028188         0.126269
 C         2.206409         1.301350         0.415627
 O         3.509375         0.880739         0.151993
 C         3.351225        -0.524634        -0.026154
 C         2.290338        -1.110010         0.967542
 C         1.810465        -2.108917        -0.029371
 C         2.057389        -0.874639        -0.919982
 O         1.932798        -0.887418        -2.342188
 H        -0.491955         0.385189         1.178008
 H        -0.395869         0.913421        -0.539796
 H        -0.624754        -0.750818        -0.292646
 H         2.025590         2.153242        -0.242483
 H         2.089780         1.632957         1.493396
 H         4.350476        -0.828261        -0.151838
 H         2.450996        -1.149018         2.064500
 H         2.372008        -3.066721        -0.121828
 H         0.743367        -2.339358        -0.061213
 H         1.009147        -0.457559        -2.542840
