19
Iteration:  2365
 C        -0.237982        -0.086638         0.278837
 C         1.309108        -0.104658         0.218997
 C         1.896533         1.224889         0.258770
 O         3.362139         0.927263         0.015072
 C         3.329835        -0.452533        -0.053911
 C         2.301347        -1.078182         1.020011
 C         2.131426        -2.139484        -0.074547
 C         2.094165        -0.873543        -0.867670
 O         2.055269        -0.572770        -2.257644
 H        -0.769348         0.591076         0.992238
 H        -0.614685        -0.135919        -0.699751
 H        -0.423411        -1.009944         0.746847
 H         1.668584         1.820445        -0.606792
 H         2.020131         1.800017         1.142318
 H         4.255352        -0.836613        -0.256358
 H         2.264307        -1.196089         2.131239
 H         3.098446        -2.678499        -0.282968
 H         1.291255        -2.854547        -0.201084
 H         2.686344         0.097816        -2.375437
