19
Iteration:  3934charge 0 multiplicity 1
 C        -0.213525        -0.106823         0.539756
 C         1.301839        -0.173527         0.310857
 C         1.835436         1.171391         0.424835
 O         3.244388         1.001613         0.205756
 C         3.285876        -0.392950        -0.055958
 C         2.329132        -1.236235         0.889414
 C         2.129193        -2.151445        -0.391755
 C         2.138076        -0.758973        -0.971517
 O         2.210583        -0.523506        -2.438241
 H        -0.402848         0.711548         1.335081
 H        -0.682486        -0.043410        -0.435627
 H        -0.668271        -1.038517         0.951994
 H         1.464707         1.785973        -0.259143
 H         1.704501         1.570380         1.462801
 H         4.272239        -0.782440        -0.559647
 H         2.457758        -1.658550         1.869958
 H         3.044354        -2.834832        -0.532398
 H         1.183522        -2.661816        -0.379703
 H         2.726539         0.236586        -2.607842
