19
Iteration:  4972
 C        -0.190869        -0.123570         0.383540
 C         1.318110        -0.131866         0.188767
 C         1.894722         1.314625         0.099260
 O         3.195875         1.043453        -0.094849
 C         3.365740        -0.389923        -0.013031
 C         2.256235        -0.990337         1.032344
 C         2.117337        -2.219440         0.045848
 C         2.170602        -0.913818        -0.861412
 O         2.151593        -0.764565        -2.250661
 H        -0.268138        -0.472577         1.460086
 H        -0.597233         0.865571         0.352899
 H        -0.651910        -0.534564        -0.459476
 H         1.489165         1.672479        -0.827327
 H         1.688826         1.961888         0.954922
 H         4.311526        -0.858727        -0.060564
 H         2.264229        -0.892293         2.103513
 H         3.131201        -2.813889        -0.146502
 H         1.128530        -2.707468         0.072277
 H         2.810630        -0.087714        -2.355595
