19
Iteration:  3585
 C        -0.294332        -0.097464         0.471519
 C         1.292487        -0.155822         0.224566
 C         1.839403         1.265786         0.225286
 O         3.282753         0.945531         0.103793
 C         3.323302        -0.434211        -0.019942
 C         2.432675        -1.146303         0.904214
 C         2.080937        -2.126544        -0.186777
 C         2.132899        -0.833092        -0.937781
 O         2.159176        -0.550492        -2.304813
 H        -0.493400         0.940399         0.341202
 H        -0.824004        -0.915025        -0.166948
 H        -0.358921        -0.501451         1.461917
 H         1.471730         1.630456        -0.712244
 H         1.557874         1.609094         1.307038
 H         4.426174        -0.685307        -0.200843
 H         2.437406        -1.318124         1.979015
 H         2.860461        -2.932268        -0.348696
 H         1.234769        -2.713582        -0.091989
 H         2.978956         0.048489        -2.453305
