19
Iteration:  1622
 C        -0.181181        -0.221232         0.178032
 C         1.347453        -0.062396         0.213970
 C         2.013250         1.320119         0.149892
 O         3.495360         0.940976         0.185378
 C         3.381262        -0.435377         0.037488
 C         2.339860        -1.075871         0.946413
 C         1.936880        -2.119927        -0.099694
 C         2.123587        -0.804799        -0.835215
 O         1.928540        -0.590020        -2.225236
 H        -0.526213        -0.358264         1.124544
 H        -0.664207         0.724971        -0.167054
 H        -0.460741        -1.005060        -0.499652
 H         1.772549         1.872294        -0.702179
 H         1.853148         2.050645         0.901248
 H         4.431694        -0.913497         0.014943
 H         2.333222        -1.209711         2.017969
 H         2.618816        -3.007586        -0.204415
 H         0.885558        -2.489865        -0.186950
 H         1.501440        -1.328725        -2.666654
