19
Iteration:   354charge 0 multiplicity 1
 C        -0.119014         0.246991         0.239687
 C         1.378845        -0.041032         0.136305
 C         2.071414         1.320136         0.240418
 O         3.556435         0.869725         0.246324
 C         3.310951        -0.620918        -0.126660
 C         2.283975        -1.090230         0.932435
 C         1.804622        -2.198775         0.022220
 C         2.076894        -0.911608        -0.949442
 O         1.989366        -0.700240        -2.258516
 H        -0.495521         0.342339         1.248972
 H        -0.317931         1.132883        -0.407420
 H        -0.711481        -0.485955        -0.317888
 H         1.881719         1.974080        -0.688385
 H         1.876312         1.907384         1.223109
 H         4.388480        -1.033507        -0.248587
 H         2.555750        -1.076388         2.048220
 H         2.442749        -3.021210        -0.185839
 H         0.797296        -2.595875         0.255648
 H         1.221090        -1.167823        -2.592162
