19
Iteration:  3284
 C        -0.165560        -0.230579         0.290115
 C         1.314742        -0.057395         0.206965
 C         1.927883         1.283923         0.387052
 O         3.287696         0.999305         0.078464
 C         3.352268        -0.417884         0.035551
 C         2.301365        -1.001825         0.971139
 C         2.054878        -2.139502        -0.171202
 C         2.165159        -0.839556        -0.943715
 O         2.069745        -0.731540        -2.355720
 H        -0.403392         0.288922         1.304804
 H        -0.735672         0.326850        -0.439616
 H        -0.404040        -1.404257         0.240628
 H         1.579922         2.019851        -0.397458
 H         1.895413         1.595273         1.515250
 H         4.405618        -0.819459        -0.037365
 H         2.422765        -1.057674         2.008133
 H         2.958120        -2.754236        -0.198779
 H         1.132299        -2.693847        -0.030784
 H         2.072802         0.194042        -2.769407
