19
Iteration:   305charge 0 multiplicity 1
 C        -0.137373         0.022063         0.403255
 C         1.363500         0.038615         0.100202
 C         2.238216         1.327466         0.089702
 O         3.547237         0.813870         0.064571
 C         3.283548        -0.566633         0.021298
 C         2.095269        -1.040992         0.982695
 C         1.696410        -2.161576        -0.095126
 C         2.091160        -0.873639        -0.881885
 O         2.109740        -0.590185        -2.195942
 H        -0.174234         0.451843         1.425412
 H        -0.844720         0.474136        -0.262113
 H        -0.505442        -1.017869         0.543247
 H         2.158307         2.013026        -0.805817
 H         2.223236         1.906703         0.991519
 H         4.165591        -1.051935        -0.193837
 H         2.049147        -1.213932         2.010838
 H         2.385739        -3.066939        -0.114552
 H         0.652580        -2.470240        -0.165098
 H         1.872193        -1.394682        -2.693780
