19
Iteration:  3598charge 0 multiplicity 1
 C        -0.185870        -0.115458         0.455888
 C         1.284995        -0.137539         0.245379
 C         1.802506         1.251050         0.234306
 O         3.284419         0.989261         0.165545
 C         3.333166        -0.440875        -0.097292
 C         2.322023        -1.175688         0.946399
 C         2.116138        -2.216688        -0.188299
 C         2.163686        -0.827790        -0.941905
 O         2.148440        -0.565604        -2.313423
 H        -0.622974         0.780387         0.042275
 H        -0.828513        -0.813211         0.029895
 H        -0.442437         0.031389         1.511748
 H         1.430997         1.921229        -0.599782
 H         1.685986         2.043147         1.086396
 H         4.371421        -0.902902        -0.403646
 H         2.508172        -1.414854         1.972734
 H         3.060544        -2.760355        -0.413615
 H         1.228641        -2.750464        -0.185972
 H         2.694353         0.186761        -2.451351
