19
Iteration:  4430charge 0 multiplicity 1
 C        -0.215611        -0.161555         0.357188
 C         1.318768        -0.102390         0.188469
 C         1.912756         1.333600         0.248786
 O         3.308558         1.077525         0.118900
 C         3.322718        -0.406110        -0.038213
 C         2.311136        -1.018951         0.951835
 C         2.098233        -2.170378        -0.094878
 C         2.156320        -0.870739        -0.871066
 O         2.126198        -0.807175        -2.341353
 H        -0.560285        -1.201788        -0.057449
 H        -0.458216        -0.076991         1.448631
 H        -0.778684         0.696534        -0.066774
 H         1.531625         1.950984        -0.626162
 H         1.864451         1.948120         1.159503
 H         4.394477        -0.774616        -0.300071
 H         2.499751        -1.307698         1.977484
 H         2.861126        -2.955803        -0.322671
 H         1.119101        -2.731986         0.054490
 H         1.776321         0.032641        -2.538914
