19
Iteration:  4195charge 0 multiplicity 1
 C        -0.172116        -0.202709         0.088054
 C         1.336592        -0.105315         0.233809
 C         1.918268         1.279511         0.437687
 O         3.384692         1.079136         0.160443
 C         3.381929        -0.379800        -0.021801
 C         2.354864        -1.135781         0.962379
 C         2.197609        -2.196784        -0.137875
 C         2.153251        -0.835597        -0.930368
 O         1.793298        -0.651764        -2.258032
 H        -0.520073         0.751752        -0.493358
 H        -0.454413        -1.225023        -0.390068
 H        -0.663353        -0.247531         1.101066
 H         1.394396         1.768704        -0.351796
 H         1.781784         1.746567         1.355034
 H         4.453293        -0.753987        -0.095319
 H         2.458761        -1.286484         2.056124
 H         3.045539        -2.959448        -0.404322
 H         1.236144        -2.671489        -0.171339
 H         2.422723         0.108197        -2.546381
