19
Iteration:  2362charge 0 multiplicity 1
 C        -0.209211        -0.089649         0.270402
 C         1.294373        -0.117072         0.221362
 C         1.933301         1.230804         0.263587
 O         3.350274         0.917583        -0.003943
 C         3.305774        -0.444265        -0.040647
 C         2.294096        -1.090414         1.013438
 C         2.133647        -2.138503        -0.069379
 C         2.104656        -0.875981        -0.879010
 O         2.043289        -0.563167        -2.242170
 H        -0.732129         0.632357         1.032896
 H        -0.642921        -0.151463        -0.722311
 H        -0.505031        -1.087857         0.670188
 H         1.626113         1.813685        -0.626530
 H         1.961200         1.882672         1.240242
 H         4.383791        -0.838455        -0.239736
 H         2.277143        -1.139947         2.140054
 H         3.079645        -2.624068        -0.117391
 H         1.314424        -2.871688        -0.245132
 H         2.709499         0.161665        -2.477070
