19
Iteration:  1384charge 0 multiplicity 1
 C        -0.251282         0.004524         0.318036
 C         1.352491         0.003497         0.268941
 C         2.064702         1.396605         0.282879
 O         3.468308         0.916967         0.181184
 C         3.361136        -0.437458        -0.056161
 C         2.309329        -1.099283         0.887954
 C         1.915033        -2.154788        -0.178576
 C         2.177402        -0.834635        -0.891180
 O         1.950655        -0.889201        -2.259607
 H        -0.704340         0.022633         1.303042
 H        -0.618716         0.800776        -0.222526
 H        -0.547397        -0.772433        -0.447362
 H         1.738328         1.927860        -0.631714
 H         1.815430         1.851506         1.216162
 H         4.370296        -1.028615        -0.159634
 H         2.338233        -1.263393         1.992575
 H         2.545647        -2.872646        -0.608473
 H         0.907711        -2.444811         0.056672
 H         2.363294        -0.067575        -2.743445
