19
Iteration:  3908
 C        -0.241604        -0.319278         0.431476
 C         1.330140        -0.112203         0.189164
 C         1.932688         1.282709         0.443167
 O         3.338973         1.014483         0.255538
 C         3.357302        -0.412839        -0.049704
 C         2.310076        -1.140606         0.816055
 C         2.051144        -2.182740        -0.366620
 C         2.187382        -0.808034        -0.952474
 O         2.049514        -0.486219        -2.319096
 H        -0.509959         0.673252         0.903719
 H        -0.715949        -0.531601        -0.581197
 H        -0.547273        -1.247034         1.030959
 H         1.663016         2.127285        -0.280030
 H         1.790498         1.609539         1.505915
 H         4.400068        -0.816527        -0.149988
 H         2.426932        -1.492826         1.867386
 H         2.733369        -2.990108        -0.518590
 H         1.050073        -2.658842        -0.297660
 H         2.421551         0.345056        -2.521342
