19
Iteration:  4317charge 0 multiplicity 1
 C        -0.179119        -0.230313         0.455575
 C         1.274660        -0.180077         0.195010
 C         1.920542         1.312351         0.240334
 O         3.279741         1.008182         0.089905
 C         3.332729        -0.397328        -0.043926
 C         2.274130        -1.050963         0.923542
 C         2.070159        -2.145513        -0.140264
 C         2.161936        -0.839993        -0.930417
 O         2.107731        -0.608438        -2.302466
 H        -0.252164        -0.197708         1.446516
 H        -0.695817         0.491112        -0.169956
 H        -0.733839        -1.115618         0.161026
 H         1.488411         1.898651        -0.560815
 H         1.841715         1.857336         1.200726
 H         4.329688        -0.732587        -0.100493
 H         2.530388        -1.196046         2.074392
 H         2.957122        -2.884395        -0.178139
 H         1.148270        -2.747831        -0.345193
 H         2.973694        -0.235012        -2.453341
