19
Iteration:  2870charge 0 multiplicity 1
 C        -0.214971        -0.305919         0.356157
 C         1.302081        -0.089215         0.154933
 C         1.994395         1.311274         0.321703
 O         3.387800         1.033730         0.092042
 C         3.309014        -0.455611        -0.045760
 C         2.297904        -1.014196         0.953961
 C         1.972469        -2.072196        -0.041410
 C         2.107710        -0.851371        -0.925027
 O         2.079493        -0.650378        -2.363109
 H        -0.609879         0.039716         1.365814
 H        -0.671722        -0.000925        -0.616655
 H        -0.307574        -1.475852         0.316911
 H         1.664523         2.119214        -0.348218
 H         1.838475         1.554232         1.308078
 H         4.341265        -0.809082        -0.046959
 H         2.531602        -1.034312         1.961527
 H         2.685593        -2.952737        -0.131200
 H         1.036336        -2.543557        -0.117257
 H         2.841799        -0.149260        -2.578802
