19
Iteration:   900charge 0 multiplicity 1
 C        -0.163799        -0.037649         0.065847
 C         1.353215        -0.089443         0.142151
 C         2.139526         1.283321         0.218804
 O         3.600924         0.928717         0.132719
 C         3.408813        -0.498955         0.114138
 C         2.275699        -1.120916         0.957302
 C         1.962881        -2.200820        -0.038331
 C         2.088194        -0.874036        -0.907743
 O         1.728931        -0.561736        -2.209407
 H        -0.659466         0.853368         0.299734
 H        -0.698255        -0.291446        -0.974465
 H        -0.674749        -0.774645         0.800993
 H         1.843157         2.060370        -0.452640
 H         2.011213         1.508239         1.314373
 H         4.376958        -1.136772         0.094483
 H         2.239174        -1.109852         2.130045
 H         2.776540        -2.931141        -0.193263
 H         1.022471        -2.792186        -0.123856
 H         1.768667         0.351400        -2.217639
