19
Iteration:  1678
 C        -0.325705         0.014771         0.481375
 C         1.264529        -0.023050         0.131906
 C         2.027801         1.311053         0.374986
 O         3.371714         0.981883         0.053134
 C         3.308805        -0.454308        -0.085956
 C         2.183223        -1.108792         0.951029
 C         2.090130        -2.158777        -0.109994
 C         2.122842        -0.842763        -0.951012
 O         2.268504        -0.814375        -2.356168
 H        -0.340815         0.109355         1.445386
 H        -0.808517         0.844242        -0.051603
 H        -0.680327        -0.986644         0.298665
 H         1.673896         2.105531        -0.216230
 H         2.005276         1.464813         1.430871
 H         4.298985        -0.899950        -0.005095
 H         2.066604        -1.117841         2.007476
 H         2.984226        -2.820124        -0.320470
 H         1.127009        -2.667347        -0.356601
 H         1.434772        -0.424749        -2.823591
