19
Iteration:    65
 C        -0.163642         0.067307         0.233170
 C         1.365854        -0.002369         0.160981
 C         2.210198         1.321569         0.293822
 O         3.617226         0.846551         0.191215
 C         3.378705        -0.568960        -0.145278
 C         2.097222        -1.030979         0.956735
 C         1.836755        -2.176660         0.022022
 C         2.131731        -0.924334        -0.939575
 O         1.886393        -0.691489        -2.317923
 H        -0.605062         0.816657         0.942453
 H        -0.446694         0.355296        -0.785513
 H        -0.722320        -0.959703         0.487110
 H         1.999962         2.096775        -0.410293
 H         2.189801         1.658126         1.356815
 H         4.318172        -1.087764        -0.138362
 H         2.132326        -0.933009         2.046098
 H         2.605203        -2.968893         0.021711
 H         0.869020        -2.710255        -0.070218
 H         1.382159         0.163914        -2.332031
