19
Iteration:  1431charge 0 multiplicity 1
 C        -0.169398        -0.086665         0.100657
 C         1.353906        -0.032003         0.133133
 C         2.118374         1.293152         0.372623
 O         3.454468         0.926691         0.125775
 C         3.440048        -0.473796         0.021247
 C         2.267595        -1.004796         0.916826
 C         1.995878        -2.230243        -0.009830
 C         2.110248        -0.892147        -0.946059
 O         1.760836        -0.576727        -2.205846
 H        -0.545141         0.753973         0.775614
 H        -0.454910         0.059306        -0.893573
 H        -0.548677        -1.088463         0.258801
 H         1.873083         2.110334        -0.354698
 H         2.001360         1.572861         1.452581
 H         4.356921        -0.955454         0.081426
 H         2.479208        -0.934984         1.975647
 H         2.854559        -2.890486         0.018224
 H         1.057953        -2.751245        -0.103730
 H         2.128600        -1.202998        -2.912906
