19
Iteration:  3898charge 0 multiplicity 1
 C        -0.165805        -0.378684         0.331095
 C         1.308412        -0.097602         0.200831
 C         1.973068         1.269012         0.412790
 O         3.388704         0.986834         0.269665
 C         3.365065        -0.414026        -0.014370
 C         2.281137        -1.165293         0.868693
 C         2.028696        -2.139245        -0.300445
 C         2.218597        -0.752668        -0.974884
 O         1.962112        -0.479551        -2.333066
 H        -0.859317         0.459395         0.778787
 H        -0.711245        -0.551193        -0.654815
 H        -0.176140        -1.242822         1.076366
 H         1.608128         2.085101        -0.145283
 H         1.751175         1.529540         1.490868
 H         4.326926        -0.735280        -0.531793
 H         2.273880        -1.399452         1.947886
 H         2.810140        -2.891197        -0.292488
 H         0.998401        -2.468228        -0.426764
 H         2.310717         0.392761        -2.436783
