19
Iteration:  4447
 C        -0.236666        -0.275597         0.488461
 C         1.227711        -0.032608         0.200311
 C         1.918446         1.356204         0.200806
 O         3.358629         1.009282         0.068082
 C         3.347337        -0.391897        -0.017018
 C         2.341361        -1.018124         0.955973
 C         1.981454        -2.118446        -0.075409
 C         2.193596        -0.846338        -1.008563
 O         2.187580        -0.798638        -2.321903
 H        -0.674189        -0.987151        -0.119887
 H        -0.380536        -0.747309         1.458250
 H        -0.710365         0.658733         0.129057
 H         1.642656         1.974054        -0.630700
 H         1.642239         1.844413         1.192758
 H         4.357043        -0.676438         0.007634
 H         2.320366        -0.953759         2.124709
 H         2.807081        -2.886101        -0.125764
 H         0.995338        -2.604124        -0.197683
 H         2.042858         0.074071        -2.641470
