19
Iteration:  3488charge 0 multiplicity 1
 C        -0.147576        -0.080529         0.186113
 C         1.347607        -0.139212         0.167316
 C         1.860928         1.280366         0.347304
 O         3.334728         1.058652         0.151378
 C         3.353907        -0.387605         0.066536
 C         2.412759        -1.105266         1.005230
 C         2.171363        -2.156834        -0.181521
 C         2.142222        -0.882729        -0.914813
 O         1.907244        -0.793901        -2.279492
 H        -0.552066         0.055386         1.161804
 H        -0.339239         0.902438        -0.215974
 H        -0.565809        -0.791889        -0.534800
 H         1.518354         1.964785        -0.572226
 H         1.586750         1.895074         1.303637
 H         4.391400        -0.907767         0.025608
 H         2.494703        -1.132259         2.092154
 H         3.148970        -2.742279        -0.401696
 H         1.355083        -2.773109        -0.381670
 H         1.448832         0.095008        -2.460292
