19
Iteration:  1172charge 0 multiplicity 1
 C        -0.230043        -0.102512         0.578522
 C         1.328794        -0.021212         0.058216
 C         2.132859         1.330724         0.218676
 O         3.499627         0.818202        -0.009461
 C         3.298366        -0.539272         0.049000
 C         2.102140        -1.041029         0.947720
 C         1.826686        -2.106701        -0.125873
 C         2.129597        -0.869607        -0.922618
 O         2.245263        -0.592822        -2.303138
 H        -0.677473         0.823174         0.400194
 H        -0.966452        -0.777973        -0.112663
 H        -0.418322        -0.597039         1.509923
 H         1.957809         2.099072        -0.612146
 H         2.206225         1.770877         1.208935
 H         4.193188        -0.967362        -0.259315
 H         2.031353        -1.180540         2.036054
 H         2.550821        -2.958990        -0.085686
 H         0.773012        -2.481431        -0.047318
 H         1.441161         0.004414        -2.612106
