19
Iteration:   495
 C        -0.225746         0.034057         0.385381
 C         1.341657         0.034197         0.229467
 C         2.182047         1.344723         0.210533
 O         3.546076         0.803459         0.139811
 C         3.308681        -0.550649        -0.061881
 C         2.100105        -0.978576         0.975440
 C         1.914495        -2.141165        -0.081308
 C         2.107391        -0.882428        -0.968203
 O         2.078171        -0.725376        -2.323931
 H        -0.422403         0.506908         1.342270
 H        -0.790803         0.624415        -0.439616
 H        -0.702513        -0.928706         0.341046
 H         1.936849         1.988914        -0.662008
 H         2.143465         1.955176         1.090605
 H         4.218449        -1.261364        -0.101866
 H         2.369306        -1.232186         2.020045
 H         2.609212        -2.972517        -0.072879
 H         0.893775        -2.546862        -0.207613
 H         1.079992        -0.561081        -2.562532
