19
Iteration:  2131
 C        -0.214765        -0.119098         0.210309
 C         1.327273        -0.131952         0.256068
 C         2.008182         1.351239         0.371120
 O         3.423266         1.063451         0.229122
 C         3.376644        -0.341337         0.089873
 C         2.349233        -1.087416         0.923405
 C         2.114339        -2.155540        -0.221616
 C         2.138663        -0.838172        -0.992845
 O         1.887362        -0.762560        -2.315939
 H        -0.703425         0.553567         1.013449
 H        -0.494158         0.326528        -0.759751
 H        -0.812253        -1.094844         0.292381
 H         1.476279         1.891565        -0.554465
 H         1.851100         1.943906         1.328777
 H         4.380765        -0.744157        -0.136817
 H         2.401949        -1.437073         1.868699
 H         2.912926        -2.906775        -0.419150
 H         1.172217        -2.616975        -0.139178
 H         1.707986        -1.705857        -2.658064
