19
Iteration:   662charge 0 multiplicity 1
 C        -0.241146         0.106090         0.428524
 C         1.356433        -0.045935         0.130187
 C         2.163059         1.256347         0.332364
 O         3.488112         0.869573         0.097802
 C         3.336768        -0.504940         0.034434
 C         2.203082        -1.047539         0.927559
 C         1.915025        -2.191886        -0.031825
 C         2.081063        -0.876803        -0.926544
 O         2.057977        -0.644580        -2.478496
 H        -0.432750         1.143554         0.859555
 H        -0.803006         0.054098        -0.474778
 H        -0.609970        -0.878266         0.993230
 H         1.707613         2.028779        -0.316517
 H         2.158314         1.562738         1.343151
 H         4.347550        -0.768571        -0.062709
 H         2.142171        -1.084321         2.045690
 H         2.760021        -2.876601        -0.076700
 H         0.975363        -2.721672        -0.040813
 H         1.309995        -1.254947        -2.848365
