19
Iteration:   986
 C        -0.229628         0.032961         0.604567
 C         1.290688         0.015337         0.173321
 C         2.098970         1.285272         0.376127
 O         3.440349         0.878210         0.118304
 C         3.263934        -0.510478         0.012873
 C         2.115672        -1.076066         0.836200
 C         1.923127        -2.113933        -0.241230
 C         2.096477        -0.860125        -1.051267
 O         2.211304        -0.766951        -2.390758
 H        -0.885540         0.221896        -0.190960
 H        -0.506187        -0.889860         1.308500
 H        -0.200357         0.804874         1.336866
 H         1.819905         2.034014        -0.394325
 H         2.136432         1.777671         1.344618
 H         4.165050        -1.183571        -0.172402
 H         1.916984        -1.103739         1.940097
 H         2.731979        -2.889187        -0.256675
 H         1.007208        -2.726108        -0.322402
 H         2.733312         0.039045        -2.695841
