19
Iteration:  1578charge 0 multiplicity 1
 C        -0.131125        -0.043506         0.159258
 C         1.394848        -0.092851         0.167590
 C         2.002397         1.280691         0.330563
 O         3.421470         0.986099         0.116796
 C         3.345042        -0.467384        -0.055650
 C         2.238449        -1.093937         0.982152
 C         2.056982        -2.211990        -0.000372
 C         2.142196        -0.875844        -0.905208
 O         1.830352        -0.605872        -2.260900
 H        -0.519962         0.252223         1.052758
 H        -0.423701         0.707597        -0.603849
 H        -0.411326        -1.038278        -0.132084
 H         1.681207         1.958660        -0.422295
 H         1.749820         1.836179         1.222664
 H         4.411903        -0.907608        -0.136396
 H         2.381983        -1.184819         2.066929
 H         2.773217        -3.002327        -0.344601
 H         1.077170        -2.737385         0.192565
 H         2.711604        -0.758447        -2.651192
