19
Iteration:  4053charge 0 multiplicity 1
 C        -0.214855        -0.169147         0.180373
 C         1.335749        -0.178150         0.191234
 C         1.936930         1.257919         0.432415
 O         3.363479         1.043849         0.225160
 C         3.343585        -0.342554         0.023814
 C         2.364622        -1.174692         0.928783
 C         2.222457        -2.218978        -0.259577
 C         2.106752        -0.838836        -0.931858
 O         1.852725        -0.599509        -2.276061
 H        -0.639404        -1.150654         0.421873
 H        -0.315144         0.672850         0.824280
 H        -0.591435         0.302242        -0.693786
 H         1.403762         1.937500        -0.401450
 H         1.747821         1.724679         1.455553
 H         4.380574        -0.760435        -0.235356
 H         2.487393        -1.421068         1.945993
 H         3.200390        -2.673849        -0.436269
 H         1.468211        -2.885829        -0.224950
 H         2.301588         0.264659        -2.542523
