19
Iteration:  3892
 C        -0.117582        -0.397858         0.262737
 C         1.321408        -0.102904         0.188231
 C         1.986044         1.235255         0.456058
 O         3.414611         0.961943         0.268057
 C         3.377990        -0.401199        -0.025856
 C         2.272513        -1.166161         0.907265
 C         2.007356        -2.104994        -0.232273
 C         2.160738        -0.708683        -1.011463
 O         1.924549        -0.477022        -2.329946
 H        -0.824218         0.203263         0.766774
 H        -0.572482        -0.716801        -0.644324
 H        -0.248877        -1.193227         0.960122
 H         1.564276         2.097757        -0.294960
 H         1.807709         1.653471         1.445883
 H         4.409670        -0.767423        -0.227925
 H         2.284628        -1.290503         1.987032
 H         2.889453        -2.795729        -0.493590
 H         1.002974        -2.479257        -0.471729
 H         2.212921         0.441148        -2.495414
