19
Iteration:  2137charge 0 multiplicity 1
 C        -0.185306        -0.086660         0.221813
 C         1.324570        -0.094525         0.236934
 C         1.982714         1.336238         0.375903
 O         3.415899         1.102981         0.227589
 C         3.369293        -0.349148         0.051154
 C         2.346972        -1.139392         0.935867
 C         2.106427        -2.194064        -0.228309
 C         2.099394        -0.829822        -0.913081
 O         1.891095        -0.753308        -2.332491
 H        -0.800676         0.521475         0.848077
 H        -0.407063         0.231501        -0.827964
 H        -0.551004        -1.084021         0.435407
 H         1.834759         1.733494        -0.586572
 H         1.774332         1.975929         1.221867
 H         4.353747        -0.727533        -0.180246
 H         2.476815        -1.524037         2.052645
 H         2.955446        -2.811522        -0.532746
 H         1.110755        -2.770905        -0.186426
 H         1.865381        -1.690607        -2.645008
