19
Iteration:   283
 C        -0.141326         0.096767         0.403695
 C         1.382141         0.023936         0.220515
 C         2.070189         1.286827         0.240609
 O         3.511999         0.802231         0.113137
 C         3.316071        -0.674439        -0.020927
 C         2.256154        -1.011322         0.930700
 C         1.683939        -2.087937         0.045398
 C         2.076071        -0.876231        -0.967884
 O         2.138967        -0.614160        -2.420082
 H        -0.430979         0.864715         1.145182
 H        -0.509687         0.349374        -0.548322
 H        -0.704732        -0.838747         0.666016
 H         1.909551         1.953512        -0.675690
 H         1.961303         1.840111         1.156538
 H         4.146331        -1.244010         0.002413
 H         2.485460        -1.073932         1.956628
 H         2.260579        -3.073979        -0.004032
 H         0.618634        -2.259840        -0.005633
 H         2.192273        -1.468292        -2.934431
