19
Iteration:  2391
 C        -0.224605        -0.177763         0.376427
 C         1.322996        -0.137353         0.204988
 C         1.979739         1.341545         0.288320
 O         3.325862         1.046413         0.140448
 C         3.300663        -0.383748        -0.022148
 C         2.354494        -1.123460         0.910412
 C         1.950557        -2.160926        -0.149156
 C         2.172411        -0.863491        -0.948848
 O         2.086050        -0.726847        -2.294773
 H        -0.572625         0.674236         0.848113
 H        -0.681203        -0.185380        -0.679547
 H        -0.589779        -1.014365         1.082867
 H         1.815297         1.888277        -0.667684
 H         1.950696         2.022850         1.125746
 H         4.414342        -0.655720        -0.085430
 H         2.518036        -1.127982         1.964841
 H         2.790618        -2.927373        -0.073170
 H         0.963262        -2.590928        -0.289947
 H         2.576373         0.009525        -2.600543
