19
Iteration:  3363
 C        -0.294490        -0.083762         0.294143
 C         1.305336        -0.116804         0.154623
 C         1.932171         1.239117         0.255830
 O         3.316983         1.049063         0.159045
 C         3.359257        -0.348850        -0.055543
 C         2.336395        -1.086318         0.896804
 C         2.218054        -2.239295        -0.072953
 C         2.185566        -0.965291        -0.908320
 O         1.940884        -0.647794        -2.225678
 H        -0.547237        -0.665297         1.201932
 H        -0.473812         1.033568         0.085953
 H        -0.737742        -0.584883        -0.555306
 H         1.573268         1.977427        -0.618622
 H         1.740318         1.899641         1.255942
 H         4.414692        -0.628091         0.065886
 H         2.426487        -1.069558         2.000029
 H         2.995962        -2.917341        -0.285258
 H         1.202526        -2.833406        -0.170534
 H         2.818961        -0.271798        -2.609803
