19
Iteration:  4419
 C        -0.154202        -0.106257         0.294316
 C         1.301524        -0.109313         0.208449
 C         1.934490         1.262213         0.274040
 O         3.323478         1.107358         0.124455
 C         3.342569        -0.363212        -0.038609
 C         2.345519        -1.072123         0.977985
 C         2.101913        -2.167592        -0.094109
 C         2.110074        -0.893088        -0.959902
 O         2.052578        -0.811686        -2.278962
 H        -0.637056        -1.148101         0.084598
 H        -0.473693         0.151050         1.352202
 H        -0.542121         0.526131        -0.510937
 H         1.494692         1.874990        -0.573331
 H         1.558119         1.720076         1.191388
 H         4.453401        -0.710289        -0.086548
 H         2.433085        -1.152997         2.077448
 H         3.067722        -2.672673        -0.244005
 H         1.200386        -2.850404        -0.104465
 H         1.702596         0.069423        -2.584111
