19
Iteration:  2191
 C        -0.145707        -0.273304         0.303282
 C         1.385359        -0.136784         0.138930
 C         1.955194         1.327756         0.195997
 O         3.439923         1.013317         0.052293
 C         3.364871        -0.444834         0.079197
 C         2.226292        -1.076999         0.994975
 C         1.974578        -2.227120        -0.025700
 C         2.148513        -0.807316        -0.921912
 O         1.933089        -0.504242        -2.294256
 H        -0.574767         0.491211         1.018781
 H        -0.731796        -0.188938        -0.650590
 H        -0.348475        -1.284597         0.606912
 H         1.623937         2.121278        -0.515909
 H         2.053925         1.818001         1.150555
 H         4.372479        -0.811368        -0.109188
 H         2.225124        -1.429841         2.127865
 H         2.763964        -3.006710        -0.120200
 H         0.904135        -2.704348        -0.099735
 H         2.884258        -0.330013        -2.640613
