19
Iteration:  2755
 C        -0.239576        -0.302825         0.314429
 C         1.303906        -0.054665         0.212662
 C         2.005932         1.392058         0.319133
 O         3.375945         1.035844         0.091494
 C         3.325260        -0.342076        -0.012553
 C         2.257978        -1.089558         0.942047
 C         1.993849        -2.122551        -0.129317
 C         2.182801        -0.828036        -0.917530
 O         2.168870        -0.682232        -2.314313
 H        -0.612393        -0.201694         1.337563
 H        -0.992696         0.075910        -0.401988
 H        -0.319283        -1.341911         0.189647
 H         1.641070         2.050040        -0.442113
 H         1.908303         1.780136         1.232373
 H         4.258306        -0.825644        -0.180163
 H         2.584058        -1.170315         1.999630
 H         2.645597        -2.996732        -0.248001
 H         0.918371        -2.556137        -0.125977
 H         1.355129        -1.138219        -2.469228
