19
Iteration:  4464
 C        -0.154214        -0.326892         0.490519
 C         1.343823        -0.020848         0.177766
 C         1.936768         1.335939         0.201384
 O         3.338234         1.063720         0.047684
 C         3.331109        -0.376685         0.015916
 C         2.212511        -0.968170         0.937252
 C         1.963754        -2.130065        -0.103782
 C         2.158638        -0.856976        -0.907424
 O         2.188797        -0.807302        -2.358830
 H        -0.883396        -0.947180        -0.300388
 H        -0.099704        -0.933129         1.423880
 H        -0.811084         0.555579         0.605945
 H         1.493101         1.949511        -0.658082
 H         1.705341         1.836340         1.156379
 H         4.266592        -1.031894        -0.192578
 H         2.275172        -1.076123         1.961481
 H         2.713345        -2.904447        -0.206763
 H         0.881359        -2.353285         0.048928
 H         2.577990         0.075697        -2.531178
