19
Iteration:  1089
 C        -0.134129         0.016930         0.129411
 C         1.362308        -0.053546         0.149656
 C         2.192690         1.315682         0.499446
 O         3.523180         0.868472         0.226993
 C         3.362881        -0.523819        -0.016258
 C         2.155111        -1.079738         0.916340
 C         2.060189        -2.168122        -0.124362
 C         2.057495        -0.786214        -0.930499
 O         1.739405        -0.645537        -2.334279
 H        -0.625885         0.110422        -0.903163
 H        -0.556485        -0.777932         0.573785
 H        -0.436047         1.013782         0.592595
 H         2.051719         2.110318        -0.226299
 H         2.051873         1.769890         1.516130
 H         4.261273        -1.169863         0.007342
 H         2.335315        -1.186531         1.966397
 H         2.915556        -2.804982        -0.225037
 H         1.108334        -2.657508        -0.271092
 H         2.062996        -1.478022        -2.719976
