19
Iteration:  3818charge 0 multiplicity 1
 C        -0.220860        -0.057843         0.302096
 C         1.293975        -0.085305         0.223462
 C         1.914592         1.254396         0.530476
 O         3.276003         0.990026         0.234970
 C         3.352261        -0.384996        -0.033364
 C         2.403086        -1.236399         0.914708
 C         2.213791        -2.254024        -0.323577
 C         2.182189        -0.812923        -0.960013
 O         1.945105        -0.571827        -2.407424
 H        -0.572914         0.658108         1.027321
 H        -0.747428        -0.023828        -0.716630
 H        -0.734237        -0.986028         0.698230
 H         1.590793         1.933410        -0.148878
 H         1.704055         1.517549         1.553326
 H         4.312871        -0.746518        -0.056395
 H         2.656288        -1.463544         1.982604
 H         3.070216        -2.861011        -0.616533
 H         1.312093        -2.970612        -0.245152
 H         2.252373         0.326733        -2.490912
