19
Iteration:   206charge 0 multiplicity 1
 C        -0.098575         0.079882         0.068357
 C         1.408716        -0.010490         0.129724
 C         2.166013         1.256720         0.231094
 O         3.617554         0.850775         0.283960
 C         3.381337        -0.537521        -0.066552
 C         2.280301        -1.052981         0.916361
 C         1.806116        -2.200108         0.019026
 C         2.013034        -0.875972        -0.871650
 O         1.730530        -0.625759        -2.228029
 H        -0.475312         0.678378         0.898979
 H        -0.365972         0.605670        -0.788082
 H        -0.610638        -0.922865         0.120805
 H         2.044811         2.085802        -0.567824
 H         1.903627         1.728761         1.205770
 H         4.250039        -1.035190        -0.265151
 H         2.564045        -1.001443         1.938345
 H         2.588001        -2.977349         0.049500
 H         0.783991        -2.459411         0.262199
 H         2.315779        -1.071256        -2.782737
