19
Iteration:  3787charge 0 multiplicity 1
 C        -0.170370        -0.309156         0.470440
 C         1.267249        -0.092158         0.239535
 C         1.931198         1.224700         0.463928
 O         3.354317         0.997300         0.209870
 C         3.309156        -0.380757        -0.082296
 C         2.266654        -1.063907         0.893280
 C         2.025217        -2.118239        -0.357260
 C         2.161526        -0.795522        -0.983334
 O         2.135751        -0.620311        -2.391932
 H        -0.463724         0.025841         1.495027
 H        -0.840830         0.500535        -0.126888
 H        -0.480971        -1.402378         0.188624
 H         1.671571         2.003785        -0.230207
 H         1.772426         1.575675         1.553314
 H         4.270277        -0.770494        -0.104045
 H         2.437756        -1.174580         2.019752
 H         2.716533        -2.829878        -0.628317
 H         1.006130        -2.642573        -0.373623
 H         2.637242         0.251324        -2.540979
