19
Iteration:  4084charge 0 multiplicity 1
 C        -0.226723        -0.258889         0.365003
 C         1.304499        -0.123712         0.282849
 C         1.882858         1.277470         0.466233
 O         3.335659         1.026974         0.180819
 C         3.317611        -0.394892        -0.095665
 C         2.326208        -1.055773         0.894982
 C         2.019612        -2.137212        -0.263985
 C         2.196488        -0.833159        -0.986107
 O         2.114365        -0.676103        -2.347715
 H        -0.811858        -1.092342        -0.019686
 H        -0.350428        -0.171147         1.490051
 H        -0.682911         0.598163        -0.147790
 H         1.434285         1.938903        -0.286311
 H         1.872882         1.758804         1.402910
 H         4.437266        -0.570277        -0.284589
 H         2.578076        -1.287363         1.863459
 H         2.942990        -2.780136        -0.335975
 H         1.088641        -2.693594        -0.281773
 H         2.496528         0.145102        -2.614975
