19
Iteration:   418
 C        -0.190362         0.065878         0.270739
 C         1.405025         0.055219         0.120894
 C         2.277819         1.393469         0.306357
 O         3.518512         0.847609         0.094763
 C         3.247882        -0.558427         0.005003
 C         2.204153        -1.102696         0.980171
 C         1.831207        -2.158066        -0.068946
 C         2.072443        -0.872643        -0.922189
 O         1.917596        -0.745445        -2.282375
 H        -0.615311         0.606368         1.113661
 H        -0.691704         0.398657        -0.737355
 H        -0.512488        -0.926709         0.421096
 H         2.011129         2.234372        -0.439949
 H         2.098290         1.715164         1.355799
 H         4.192930        -1.266019        -0.149066
 H         2.358575        -1.297375         2.087339
 H         2.559033        -2.906750        -0.286141
 H         0.825166        -2.619459         0.006441
 H         2.671719        -0.301847        -2.599903
