19
Iteration:  3140
 C        -0.299841        -0.037081         0.213646
 C         1.325871        -0.140213         0.164687
 C         1.869999         1.219257         0.354788
 O         3.282340         1.022594         0.098531
 C         3.389508        -0.425920         0.009323
 C         2.381098        -1.053313         0.962718
 C         2.226211        -2.236229        -0.091444
 C         2.197199        -0.834854        -0.892627
 O         1.956905        -0.727398        -2.286838
 H        -0.649193         0.323224         1.264536
 H        -0.498364         0.860544        -0.414787
 H        -0.889454        -0.980051        -0.244832
 H         1.519172         1.978195        -0.507129
 H         1.673545         1.709490         1.276092
 H         4.378940        -0.718447        -0.147269
 H         2.628536        -1.003582         2.039859
 H         3.100319        -2.950831        -0.347937
 H         1.323230        -2.736942        -0.004687
 H         2.553226         0.035997        -2.477190
