19
Iteration:  4755charge 0 multiplicity 1
 C        -0.155034        -0.013661         0.160715
 C         1.352153        -0.076271         0.173833
 C         1.833753         1.318886         0.187987
 O         3.279980         1.083959         0.004463
 C         3.373570        -0.306008        -0.008419
 C         2.353475        -1.026926         1.030912
 C         2.225802        -2.174154         0.053202
 C         2.150090        -0.955411        -0.820985
 O         1.941639        -0.970290        -2.230399
 H        -0.649852        -1.055954         0.129060
 H        -0.539756         0.362012         1.140650
 H        -0.617541         0.571386        -0.648059
 H         1.577739         1.930383        -0.772587
 H         1.752323         2.072399         0.993051
 H         4.365705        -0.729865        -0.094194
 H         2.340242        -1.156887         2.103446
 H         2.949532        -2.894115        -0.035607
 H         1.390506        -2.842038         0.168920
 H         2.329349        -0.132922        -2.619875
