19
Iteration:  2225
 C        -0.258481        -0.193178         0.351749
 C         1.222541        -0.102577         0.293997
 C         1.934882         1.313924         0.262313
 O         3.420859         0.975901         0.033165
 C         3.357931        -0.430883        -0.033314
 C         2.350511        -1.042837         0.995903
 C         1.984325        -2.156697        -0.134245
 C         2.097437        -0.827618        -0.865339
 O         2.145311        -0.671558        -2.325193
 H        -0.657118         0.180460         1.274594
 H        -0.568483         0.418851        -0.583436
 H        -0.650745        -1.237999         0.230133
 H         1.603640         1.931206        -0.617555
 H         1.816298         1.899136         1.171741
 H         4.199303        -0.923832        -0.373040
 H         2.575330        -1.291446         2.084828
 H         2.790022        -2.900074        -0.327673
 H         0.995755        -2.678460        -0.066741
 H         2.623689         0.158464        -2.496888
