19
Iteration:  2171
 C        -0.221150        -0.182318         0.288291
 C         1.306339        -0.128401         0.146888
 C         1.981270         1.245183         0.290366
 O         3.393248         0.975455         0.182879
 C         3.393078        -0.421154        -0.000636
 C         2.344933        -1.011682         0.910112
 C         2.052630        -2.159499        -0.074729
 C         2.188052        -0.906130        -0.926537
 O         1.895591        -0.528912        -2.285164
 H        -0.501048         0.657589         0.795438
 H        -0.615274        -0.186537        -0.771552
 H        -0.630823        -1.154435         0.640045
 H         1.891182         1.864172        -0.569039
 H         1.598798         1.931273         1.052118
 H         4.336578        -0.843141        -0.068059
 H         2.477359        -1.079007         2.034732
 H         2.772282        -2.967568        -0.167052
 H         1.036521        -2.554387         0.066420
 H         2.522105        -0.889639        -2.901148
