19
Iteration:  2605
 C        -0.240894        -0.159403         0.147748
 C         1.274263        -0.142958         0.217964
 C         1.977526         1.245737         0.362898
 O         3.401675         1.070735         0.092416
 C         3.367483        -0.341933        -0.053521
 C         2.266248        -1.148912         0.988430
 C         2.140872        -2.202709        -0.071483
 C         2.195486        -0.812632        -0.933244
 O         1.977290        -0.612385        -2.257052
 H        -0.516711         0.618342         0.985168
 H        -0.727362         0.356290        -0.606967
 H        -0.648650        -1.068406         0.477076
 H         1.546802         2.007176        -0.253017
 H         1.871250         1.817708         1.337399
 H         4.276486        -0.806540        -0.282499
 H         2.248679        -1.288366         2.075827
 H         3.001228        -2.798613        -0.244193
 H         1.249010        -2.778920        -0.111383
 H         1.920971        -1.481980        -2.574148
