19
Iteration:  1527charge 0 multiplicity 1
 C        -0.182695        -0.099451         0.471537
 C         1.337971        -0.005648         0.201439
 C         2.041325         1.344092         0.335463
 O         3.418084         0.949853         0.116115
 C         3.260014        -0.437336        -0.022456
 C         2.188684        -1.029682         0.907986
 C         1.919737        -2.171837        -0.161606
 C         2.081033        -0.829093        -0.969940
 O         2.222509        -0.838803        -2.377993
 H        -0.450014         0.879888         0.965705
 H        -0.683784        -0.233617        -0.563830
 H        -0.404278        -1.094379         1.012078
 H         1.792488         2.247130        -0.320197
 H         1.914025         1.786254         1.346273
 H         4.286206        -0.832583        -0.136464
 H         2.217242        -1.114905         1.977204
 H         2.764275        -2.848534        -0.140933
 H         0.997231        -2.685674        -0.440044
 H         1.626284         0.007698        -2.587848
