19
Iteration:  4305charge 0 multiplicity 1
 C        -0.226525        -0.162540         0.527072
 C         1.276939        -0.048724         0.229446
 C         1.823521         1.246644         0.218273
 O         3.297141         0.983082         0.081740
 C         3.294231        -0.407964        -0.012327
 C         2.282001        -1.108161         0.899172
 C         2.153324        -2.230981        -0.167108
 C         2.176403        -0.822235        -0.945039
 O         2.164787        -0.604118        -2.326368
 H        -0.473794         0.259924         1.389241
 H        -0.781413         0.550817        -0.111257
 H        -0.487142        -1.223704         0.468049
 H         1.569305         1.864485        -0.622739
 H         1.606519         1.848981         1.170437
 H         4.258469        -0.831321        -0.186327
 H         2.392298        -1.214960         2.061999
 H         3.115336        -2.892684        -0.350210
 H         1.190021        -2.764994        -0.133883
 H         2.911417        -0.103498        -2.693030
