19
Iteration:   512charge 0 multiplicity 1
 C        -0.172436         0.081144         0.295177
 C         1.338811         0.047749         0.120316
 C         2.115586         1.327610         0.353086
 O         3.528729         0.890131         0.166975
 C         3.352227        -0.533175        -0.046525
 C         2.342055        -1.079550         0.916240
 C         1.749784        -2.149382         0.037363
 C         2.075029        -0.871176        -0.952018
 O         2.047522        -0.823229        -2.402252
 H        -0.481916         0.262736         1.348770
 H        -0.563961         0.813062        -0.406895
 H        -0.627599        -0.918324         0.094054
 H         2.038447         2.139347        -0.388151
 H         1.985079         1.732997         1.419170
 H         4.320853        -0.997075        -0.329720
 H         2.315151        -0.945087         2.006926
 H         2.395363        -3.042958        -0.218904
 H         0.703225        -2.504688         0.273474
 H         1.149518        -0.349675        -2.646852
