19
Iteration:  3652
 C        -0.122096        -0.357286         0.189397
 C         1.340182        -0.027836         0.211310
 C         1.975167         1.327904         0.476691
 O         3.417340         1.030818         0.301457
 C         3.328499        -0.360530        -0.083603
 C         2.340671        -1.022164         0.880769
 C         1.968449        -2.096588        -0.222178
 C         2.119433        -0.823540        -0.980179
 O         1.943234        -0.749518        -2.341345
 H        -0.387284        -0.611162        -0.859824
 H        -0.475685        -1.250204         0.973084
 H        -0.750845         0.409949         0.687933
 H         1.718963         2.092782        -0.216863
 H         2.071792         1.600846         1.611190
 H         4.434781        -0.787373        -0.151102
 H         2.443713        -1.103109         1.940849
 H         2.732271        -2.939578        -0.330343
 H         1.094378        -2.619234        -0.054651
 H         1.997113         0.177943        -2.553821
