19
Iteration:    15
 C        -0.116964         0.178564         0.151478
 C         1.372877        -0.016695         0.358733
 C         2.171001         1.267930         0.258176
 O         3.545930         0.848613         0.046527
 C         3.321372        -0.537157        -0.054107
 C         2.206159        -1.159222         0.963783
 C         1.803291        -2.185984        -0.116007
 C         2.100757        -0.850890        -0.826746
 O         1.910909        -0.586830        -2.166702
 H        -0.599322         0.741226         0.927653
 H        -0.343774         0.603138        -0.867757
 H        -0.531193        -0.711806         0.232543
 H         1.771563         1.533804        -0.873931
 H         2.195148         2.056831         0.998187
 H         4.280802        -1.078631        -0.351700
 H         2.439252        -1.425602         1.947313
 H         2.436075        -3.072643        -0.096291
 H         0.802013        -2.536059        -0.095889
 H         1.994651        -1.503895        -2.634384
