19
Iteration:  2008charge 0 multiplicity 1
 C        -0.266040        -0.178382         0.436619
 C         1.272740        -0.094941         0.173592
 C         1.989879         1.263039         0.226333
 O         3.397348         0.972304         0.239048
 C         3.339582        -0.395366         0.024986
 C         2.303309        -1.042333         0.917422
 C         2.071224        -2.120729        -0.165830
 C         2.179207        -0.844189        -0.979840
 O         2.120146        -0.665918        -2.354585
 H        -0.558193         0.394993         1.257323
 H        -0.815803         0.338032        -0.444354
 H        -0.877230        -1.173196         0.388604
 H         1.716300         1.891778        -0.670176
 H         1.793575         1.892431         1.136895
 H         4.251488        -0.849635        -0.363124
 H         2.432111        -0.996318         2.056667
 H         2.884765        -2.793625        -0.233317
 H         1.121235        -2.652398        -0.245092
 H         1.159896        -0.849509        -2.555546
