19
Iteration:    26charge 0 multiplicity 1
 C        -0.129720         0.149633         0.132431
 C         1.382098        -0.019897         0.376071
 C         2.163407         1.290618         0.198126
 O         3.533320         0.849041         0.046223
 C         3.367312        -0.587328        -0.069974
 C         2.255175        -1.188642         1.045847
 C         1.815257        -2.188912        -0.097278
 C         2.067309        -0.870301        -0.822003
 O         1.910815        -0.561838        -2.170477
 H        -0.592413         0.938369         0.710314
 H        -0.144789         0.534316        -0.924502
 H        -0.694782        -0.685354         0.108859
 H         1.778863         1.986696        -0.733780
 H         2.010546         2.004415         1.018284
 H         4.351338        -1.145652        -0.197595
 H         2.352806        -1.417462         2.088729
 H         2.525913        -2.937685        -0.462372
 H         0.778965        -2.452003        -0.102804
 H         1.537496        -1.295622        -2.587235
