19
Iteration:   760charge 0 multiplicity 1
 C        -0.131053        -0.044152         0.344972
 C         1.325950        -0.040509         0.252158
 C         2.095004         1.352985         0.186816
 O         3.503635         0.910137         0.062107
 C         3.317870        -0.550943         0.074039
 C         2.225454        -1.071143         0.960159
 C         1.859153        -2.136968        -0.112964
 C         2.094413        -0.891439        -0.890765
 O         1.981039        -0.675063        -2.327286
 H        -0.478137        -0.370760         1.392153
 H        -0.419508         0.932020         0.157323
 H        -0.637561        -0.837376        -0.371140
 H         1.850566         1.849401        -0.776797
 H         1.981001         1.997368         1.042531
 H         4.338953        -1.025225        -0.131130
 H         2.361558        -1.258136         2.097663
 H         2.569594        -2.927245        -0.262586
 H         0.864686        -2.608969        -0.112915
 H         2.426623         0.217268        -2.490280
