19
Iteration:  2542
 C        -0.188874        -0.272239         0.399992
 C         1.360221        -0.081022         0.144796
 C         2.024066         1.311922         0.217455
 O         3.398058         1.071392         0.210054
 C         3.291925        -0.354888         0.000134
 C         2.258829        -0.981507         0.877238
 C         1.961499        -2.176502        -0.162764
 C         2.185740        -0.905476        -0.910587
 O         2.032769        -0.671983        -2.296432
 H        -0.445174        -0.110675         1.494520
 H        -0.929153         0.245408        -0.314947
 H        -0.376168        -1.376222         0.071852
 H         1.612266         1.969921        -0.612816
 H         1.744572         1.874490         1.157583
 H         4.332002        -0.745384        -0.102074
 H         2.157471        -1.038058         1.967940
 H         2.711375        -3.057340        -0.085336
 H         0.913174        -2.518277        -0.060435
 H         2.721702        -0.960100        -2.852667
