19
Iteration:  2709charge 0 multiplicity 1
 C        -0.261873        -0.094163         0.473804
 C         1.224442        -0.114155         0.112220
 C         1.866126         1.264150         0.320042
 O         3.328719         1.082749         0.110575
 C         3.377073        -0.371317        -0.035902
 C         2.295016        -1.083338         0.895472
 C         2.090660        -2.243292        -0.114049
 C         2.212849        -0.910712        -0.980604
 O         2.265065        -0.679987        -2.329071
 H        -0.315335         0.250645         1.445543
 H        -0.911111         0.598419        -0.090901
 H        -0.959436        -0.921393         0.452217
 H         1.510869         1.781052        -0.507398
 H         1.709306         1.681613         1.260125
 H         4.415187        -0.721065        -0.069290
 H         2.377315        -1.031106         1.962119
 H         2.741614        -3.112019        -0.220734
 H         1.045783        -2.636793        -0.163149
 H         1.303063        -0.549221        -2.555596
