19
Iteration:  4510
 C        -0.214496        -0.158155         0.312970
 C         1.292193        -0.187181         0.197026
 C         1.840977         1.294843         0.232076
 O         3.368387         1.036466         0.056657
 C         3.317320        -0.328676        -0.049836
 C         2.365351        -1.027912         1.010343
 C         2.155758        -2.210496         0.005666
 C         2.167935        -0.861664        -0.899574
 O         1.990382        -0.703454        -2.291994
 H        -0.612374         0.358756        -0.752779
 H        -0.675824        -1.195836         0.422025
 H        -0.640727         0.637938         1.002707
 H         1.581460         1.873374        -0.712091
 H         1.862188         1.973851         1.049221
 H         4.358270        -0.699297        -0.146949
 H         2.389227        -1.034628         2.093298
 H         3.028477        -2.856255        -0.078361
 H         1.152568        -2.560227         0.010534
 H         2.765694        -0.927262        -2.748037
