19
Iteration:  4329
 C        -0.206677        -0.326320         0.362968
 C         1.355745        -0.103474         0.168968
 C         1.918736         1.312019         0.291805
 O         3.358966         1.083333         0.087371
 C         3.317153        -0.386705        -0.025935
 C         2.331974        -1.058265         0.959608
 C         2.021740        -2.159660        -0.134626
 C         2.170938        -0.889246        -0.938293
 O         2.041394        -0.626580        -2.289047
 H        -0.467047        -0.319130         1.344387
 H        -0.691864         0.618575         0.169982
 H        -0.547051        -1.212420        -0.144477
 H         1.626365         1.951516        -0.535930
 H         1.644101         1.756481         1.238886
 H         4.298862        -0.762174        -0.182478
 H         2.182187        -1.178263         2.129429
 H         2.809701        -2.927589        -0.371943
 H         0.979497        -2.523559         0.116739
 H         2.897845        -0.219380        -2.679672
