19
Iteration:  1232
 C        -0.178332         0.091440         0.064430
 C         1.305048        -0.050585         0.210558
 C         2.126818         1.296608         0.399474
 O         3.549071         0.897873         0.223115
 C         3.378125        -0.466183        -0.004485
 C         2.296410        -1.093827         0.942798
 C         2.007859        -2.141218        -0.162072
 C         2.118982        -0.844817        -0.918743
 O         1.693292        -0.804319        -2.206181
 H        -0.586494         1.144239         0.281174
 H        -0.341461        -0.191992        -0.886717
 H        -0.637014        -0.556784         0.856666
 H         1.880663         1.934438        -0.437679
 H         1.863559         1.914504         1.262471
 H         4.417666        -0.876571        -0.300491
 H         2.578327        -1.185153         2.011373
 H         2.840461        -2.817652        -0.370613
 H         1.101005        -2.753911        -0.149559
 H         2.392408        -0.464888        -2.834135
