19
Iteration:  2628charge 0 multiplicity 1
 C        -0.105271        -0.281542         0.127950
 C         1.379061        -0.036958         0.210022
 C         1.904108         1.328582         0.341176
 O         3.348129         0.982571         0.117861
 C         3.398190        -0.459687         0.030195
 C         2.392523        -0.988691         0.970926
 C         1.976232        -2.166522        -0.108922
 C         2.159729        -0.893836        -0.956732
 O         1.937284        -0.562590        -2.262637
 H        -0.699989         0.350072         0.856108
 H        -0.382947         0.273030        -0.750101
 H        -0.354804        -1.347839         0.269796
 H         1.509381         2.181725        -0.181422
 H         1.715650         1.795278         1.383333
 H         4.411759        -0.854893         0.129282
 H         2.439229        -0.995541         2.080634
 H         2.906128        -2.707543        -0.286102
 H         1.116437        -2.777418         0.011285
 H         1.573148        -1.495589        -2.498365
