19
Iteration:  1944charge 0 multiplicity 1
 C        -0.264213        -0.132737         0.092260
 C         1.314893        -0.118948         0.158039
 C         2.027186         1.283156         0.416483
 O         3.439658         1.027782         0.104227
 C         3.374466        -0.408089         0.018301
 C         2.351453        -1.069800         0.909197
 C         2.087303        -2.227595        -0.002591
 C         2.139584        -0.863464        -0.915939
 O         1.828542        -0.581957        -2.259934
 H        -0.689127         0.495830         0.826332
 H        -0.506440         0.062732        -0.967908
 H        -0.576399        -1.237904         0.149509
 H         1.830870         2.192729        -0.083935
 H         1.839263         1.517502         1.435251
 H         4.364184        -0.789370        -0.233790
 H         2.391738        -1.101272         2.006219
 H         3.027940        -2.863562         0.106340
 H         1.209636        -2.872859         0.176458
 H         2.496188        -0.930159        -2.955009
