19
Iteration:  2238charge 0 multiplicity 1
 C        -0.254285        -0.110229         0.373139
 C         1.367264        -0.098279         0.226363
 C         1.941952         1.301401         0.295053
 O         3.374890         1.055866         0.082717
 C         3.279534        -0.405731        -0.044794
 C         2.322656        -1.185448         0.955290
 C         2.035655        -2.172291        -0.052505
 C         2.129449        -0.850210        -0.954335
 O         2.141240        -0.743463        -2.364626
 H        -0.489581         0.190727         1.320244
 H        -0.827156         0.672187        -0.255648
 H        -0.807789        -1.078046         0.080916
 H         1.580120         1.938038        -0.487971
 H         1.781983         1.904136         1.209868
 H         4.295868        -0.676162        -0.106948
 H         2.293631        -1.302548         1.997369
 H         2.762569        -2.961353        -0.260846
 H         1.057998        -2.535343         0.058916
 H         2.288602         0.241001        -2.552419
