19
Iteration:   400charge 0 multiplicity 1
 C        -0.169595         0.072826         0.191187
 C         1.304054         0.106159         0.291890
 C         2.211636         1.333986         0.411698
 O         3.609488         0.817248         0.050171
 C         3.377667        -0.562181        -0.000825
 C         2.127762        -0.980601         0.924415
 C         1.865436        -2.102716        -0.174562
 C         2.093453        -0.828399        -0.857922
 O         1.895153        -0.910704        -2.300226
 H        -0.542391         0.499616         1.141503
 H        -0.512349         0.553201        -0.665181
 H        -0.634467        -1.000827         0.072610
 H         1.912860         2.140162        -0.269444
 H         2.285982         1.712044         1.500926
 H         4.247224        -1.159061        -0.058604
 H         2.067838        -1.088807         2.018088
 H         2.688068        -2.854566        -0.260086
 H         0.913860        -2.608211        -0.242011
 H         1.832729        -0.029969        -2.593038
