19
Iteration:  2594
 C        -0.307245        -0.085821         0.263209
 C         1.348888        -0.140969         0.223267
 C         1.878947         1.317649         0.351073
 O         3.425300         1.068670         0.130210
 C         3.384409        -0.364012        -0.141378
 C         2.233586        -1.144421         0.963655
 C         2.142760        -2.224071        -0.124797
 C         2.141532        -0.849694        -0.844518
 O         2.035863        -0.638185        -2.305035
 H        -0.509498         0.611172         1.174663
 H        -0.521651         0.196987        -0.695739
 H        -0.864643        -0.965243         0.394446
 H         1.533437         1.851157        -0.479338
 H         1.815850         1.633006         1.425241
 H         4.360038        -0.680771        -0.222873
 H         2.313731        -1.290990         2.044690
 H         3.075823        -2.705325        -0.183552
 H         1.384357        -2.944326        -0.165354
 H         2.213534        -1.538310        -2.705165
