19
Iteration:  1860charge 0 multiplicity 1
 C        -0.117437        -0.156202         0.489065
 C         1.291606        -0.067211         0.083090
 C         1.977320         1.336501         0.307006
 O         3.395391         0.970277         0.119617
 C         3.273167        -0.421584         0.029597
 C         2.127193        -1.013161         0.958543
 C         1.987559        -2.107085        -0.121924
 C         2.117790        -0.866511        -1.005566
 O         2.262552        -0.780580        -2.400861
 H        -0.315079        -0.191526         1.621294
 H        -0.854732         0.506611         0.179030
 H        -0.464550        -1.100500         0.306465
 H         1.744183         2.056130        -0.476329
 H         1.839970         1.700555         1.371701
 H         4.262387        -0.872649         0.017522
 H         1.996275        -0.847179         1.957316
 H         2.809552        -2.688689        -0.470935
 H         1.077720        -2.658958        -0.128970
 H         1.555940        -0.250897        -2.688274
