19
Iteration:  1133charge 0 multiplicity 1
 C        -0.151611         0.030948         0.454041
 C         1.349040        -0.041523         0.274684
 C         2.078900         1.309148         0.249679
 O         3.410222         0.860955         0.204708
 C         3.282586        -0.453057        -0.081450
 C         2.251834        -1.154424         0.910009
 C         1.781055        -2.136072        -0.179722
 C         2.122653        -0.804702        -0.985283
 O         2.195802        -0.683988        -2.356663
 H        -0.412952         1.027571        -0.082870
 H        -0.705478        -0.800599         0.189412
 H        -0.196407         0.388428         1.557158
 H         1.651492         1.838181        -0.573467
 H         1.882352         1.916335         1.164343
 H         4.294398        -0.931898        -0.341205
 H         2.327202        -1.310838         1.980617
 H         2.510236        -2.893216        -0.413577
 H         0.774894        -2.493397         0.012866
 H         1.667762        -1.428617        -2.690717
