19
Iteration:  1975
 C        -0.093316        -0.202313         0.142414
 C         1.368022        -0.054961         0.231559
 C         1.980379         1.348592         0.431042
 O         3.327104         1.015083         0.149721
 C         3.357442        -0.398243        -0.016451
 C         2.349626        -1.126842         0.925018
 C         1.961604        -2.107824        -0.159685
 C         2.173548        -0.794460        -0.915637
 O         1.949278        -0.699721        -2.269172
 H        -0.621467         0.424176         0.784211
 H        -0.286729         0.248915        -0.891483
 H        -0.335421        -1.293104         0.474688
 H         1.705272         2.105018        -0.313933
 H         1.829155         1.624386         1.484943
 H         4.314165        -0.782797        -0.425614
 H         2.430135        -1.184491         2.096732
 H         2.738198        -2.835938        -0.204075
 H         0.970462        -2.598928        -0.165545
 H         1.720166        -1.562885        -2.509229
