19
Iteration:  4285charge 0 multiplicity 1
 C        -0.244563        -0.148546         0.538811
 C         1.243226        -0.206599         0.212759
 C         1.907575         1.307143         0.230016
 O         3.287300         1.062384         0.136525
 C         3.339479        -0.370494        -0.006075
 C         2.273512        -1.120285         0.906456
 C         2.145103        -2.206163        -0.215390
 C         2.096261        -0.901755        -0.964729
 O         2.186264        -0.647323        -2.354203
 H        -0.412392         0.752620         1.170853
 H        -0.900512         0.191487        -0.265912
 H        -0.697014        -1.023716         0.991941
 H         1.611514         1.883740        -0.639552
 H         1.882665         1.875621         1.080840
 H         4.330303        -0.711540        -0.082435
 H         2.553467        -1.369028         2.041672
 H         3.061000        -2.793834        -0.317802
 H         1.192316        -2.757559        -0.382982
 H         2.724950         0.215696        -2.464450
