19
Iteration:  2613charge 0 multiplicity 1
 C        -0.180422        -0.158140         0.166564
 C         1.302442        -0.118849         0.183115
 C         1.998473         1.262281         0.371852
 O         3.341796         1.018396         0.077192
 C         3.359993        -0.365555         0.027583
 C         2.293109        -1.069209         0.971788
 C         2.158073        -2.176702        -0.104242
 C         2.175077        -0.829661        -0.889873
 O         1.949944        -0.615205        -2.253454
 H        -0.707082         0.423766         0.939314
 H        -0.658159         0.163017        -0.809648
 H        -0.549792        -1.149478         0.287126
 H         1.631035         2.030283        -0.365050
 H         1.874148         1.602168         1.423807
 H         4.350553        -0.782338        -0.142848
 H         2.417281        -1.245045         2.031831
 H         2.887160        -2.966766        -0.247568
 H         1.122344        -2.571205        -0.117758
 H         1.740178        -1.326841        -2.821635
