19
Iteration:  4600charge 0 multiplicity 1
 C        -0.175986        -0.270793         0.337583
 C         1.330345        -0.037028         0.121915
 C         1.957219         1.316110         0.205473
 O         3.344193         1.079141         0.069078
 C         3.368432        -0.371111        -0.030091
 C         2.322474        -0.958958         0.972313
 C         2.031780        -2.108864         0.018508
 C         2.183429        -0.881727        -0.908518
 O         1.990480        -0.763748        -2.283505
 H        -0.801195         0.658389         0.845044
 H        -0.614598        -0.519849        -0.693611
 H        -0.348814        -1.311358         0.763725
 H         1.507801         1.957165        -0.610494
 H         1.740672         1.779839         1.165776
 H         4.288955        -0.820693        -0.132896
 H         2.314162        -1.062570         2.132269
 H         2.818810        -2.875497         0.078336
 H         1.031910        -2.491079         0.006599
 H         2.549644        -1.452698        -2.656905
