19
Iteration:  4780
 C        -0.256158        -0.147492         0.366393
 C         1.295696        -0.096651         0.239806
 C         1.876337         1.319792         0.033929
 O         3.357839         1.062277         0.003734
 C         3.306072        -0.314662        -0.013580
 C         2.318350        -0.920375         1.017434
 C         2.132325        -2.125624         0.010849
 C         2.177482        -0.921998        -0.861400
 O         2.074303        -0.930226        -2.242412
 H        -0.767824        -1.068667        -0.080371
 H        -0.737720        -0.163472         1.400191
 H        -0.684500         0.752488        -0.211380
 H         1.719492         1.917872        -0.874199
 H         1.785659         2.038328         0.880101
 H         4.360313        -0.888476         0.026880
 H         2.442071        -0.923068         2.070004
 H         2.826806        -2.935051        -0.067993
 H         1.159429        -2.728869         0.002720
 H         2.833473        -0.484674        -2.771757
