19
Iteration:  2584
 C        -0.226705        -0.040884         0.358791
 C         1.271203        -0.104092         0.248755
 C         1.909571         1.282749         0.318073
 O         3.328830         1.008396         0.151733
 C         3.369858        -0.350700        -0.060191
 C         2.276850        -1.086827         0.947979
 C         2.183101        -2.218436        -0.167182
 C         2.137817        -0.890769        -0.939109
 O         2.065876        -0.681934        -2.301369
 H        -0.825513         0.665020         0.999445
 H        -0.544343         0.380540        -0.572255
 H        -0.678884        -1.027894         0.393851
 H         1.571862         2.000458        -0.392745
 H         1.628825         1.818294         1.266023
 H         4.319037        -0.772868        -0.240503
 H         2.500056        -1.236870         2.010668
 H         3.051795        -2.854090        -0.317614
 H         1.255617        -2.732180        -0.226994
 H         2.399880        -1.403501        -2.930529
