19
Iteration:    58
 C        -0.156295         0.100729         0.166446
 C         1.371531         0.019081         0.169995
 C         2.196265         1.262582         0.316883
 O         3.603342         0.850178         0.161165
 C         3.353061        -0.590435        -0.121949
 C         2.126656        -1.046237         0.921835
 C         1.864172        -2.201252         0.052993
 C         2.141804        -0.921494        -0.926510
 O         1.881911        -0.636965        -2.275780
 H        -0.526663         0.811584         0.890470
 H        -0.668467         0.285664        -0.831203
 H        -0.493175        -0.831287         0.408662
 H         1.972996         1.955863        -0.496031
 H         2.106970         1.738279         1.280291
 H         4.351435        -1.138956        -0.065622
 H         2.266236        -1.033216         1.966726
 H         2.577258        -3.001569         0.036155
 H         0.866579        -2.581519         0.045475
 H         1.079835         0.049184        -2.283091
