19
Iteration:  4221
 C        -0.176342        -0.404763         0.083873
 C         1.324422         0.000513         0.198087
 C         2.009912         1.302699         0.465711
 O         3.404643         1.024998         0.210828
 C         3.412741        -0.379389        -0.080482
 C         2.339386        -1.030559         0.942713
 C         2.075179        -2.065503        -0.133312
 C         2.120016        -0.794130        -0.910072
 O         1.836013        -0.754814        -2.275739
 H        -0.698975         0.681445         0.053499
 H        -0.328721        -1.094821        -0.752465
 H        -0.586553        -0.826346         1.007857
 H         1.608348         2.082689        -0.298366
 H         1.807702         1.611080         1.539918
 H         4.403815        -0.715750        -0.232850
 H         2.516395        -1.279417         2.062414
 H         2.854193        -2.732139        -0.290921
 H         1.126383        -2.597185        -0.321089
 H         2.233016         0.149921        -2.448144
