19
Iteration:   923
 C        -0.127009        -0.000561         0.175396
 C         1.336397        -0.015064         0.268321
 C         2.145494         1.348627         0.359820
 O         3.458733         0.822053         0.153886
 C         3.290914        -0.527650        -0.016591
 C         2.247728        -1.054421         0.947203
 C         1.993311        -2.124474        -0.151618
 C         2.130224        -0.845249        -0.899068
 O         1.852365        -0.718451        -2.307334
 H        -0.695275         0.887270         0.025847
 H        -0.528164        -0.679870        -0.642426
 H        -0.556631        -0.524393         1.132966
 H         1.869771         1.995886        -0.460482
 H         2.175732         1.866313         1.365095
 H         4.304656        -1.034735        -0.167302
 H         2.210495        -1.144856         2.108156
 H         2.869584        -2.760021        -0.213731
 H         1.088101        -2.751799        -0.303590
 H         2.130849         0.254599        -2.512840
