19
Iteration:  1604charge 0 multiplicity 1
 C        -0.268160        -0.163146         0.131412
 C         1.329623        -0.047927         0.173211
 C         2.130402         1.304244         0.204935
 O         3.464289         0.937798         0.141957
 C         3.385945        -0.510308         0.045636
 C         2.241919        -0.987188         1.021176
 C         2.075549        -2.172534        -0.106141
 C         2.171704        -0.913718        -0.856279
 O         1.818276        -0.502475        -2.210794
 H        -0.763616        -0.360116         1.150904
 H        -0.671354         0.730963        -0.366349
 H        -0.403505        -1.133242        -0.443445
 H         1.896137         1.918643        -0.749926
 H         1.877584         1.885019         1.139845
 H         4.313520        -0.952579        -0.123341
 H         2.462052        -1.069605         2.075064
 H         2.920908        -2.840377        -0.332207
 H         1.212795        -2.777157         0.140582
 H         1.882623        -1.320054        -2.674151
