19
Iteration:  1994charge 0 multiplicity 1
 C        -0.190081        -0.165959         0.280819
 C         1.327859        -0.064160         0.273068
 C         1.982916         1.371651         0.315042
 O         3.409639         1.050813         0.214646
 C         3.337018        -0.407934        -0.033379
 C         2.292311        -1.083851         0.935763
 C         2.046260        -2.192445        -0.241669
 C         2.114450        -0.815939        -0.906611
 O         2.054920        -0.728351        -2.332730
 H        -0.582003         0.368309         1.192161
 H        -0.697370         0.193513        -0.672586
 H        -0.329085        -1.241755         0.514497
 H         1.690933         2.021002        -0.612756
 H         1.697106         1.967909         1.300239
 H         4.390814        -0.795920         0.060877
 H         2.368552        -1.405967         2.066812
 H         2.795160        -2.939767        -0.514343
 H         1.022263        -2.633649        -0.152681
 H         1.343771        -1.232903        -2.691768
