19
Iteration:  2241
 C        -0.247818        -0.077258         0.370276
 C         1.386196        -0.096590         0.204935
 C         1.952869         1.289389         0.293937
 O         3.341305         1.063111         0.103932
 C         3.278410        -0.404173        -0.046762
 C         2.309772        -1.170550         0.942987
 C         2.043703        -2.191507        -0.055154
 C         2.146665        -0.853928        -0.977134
 O         2.132529        -0.757842        -2.356758
 H        -0.433228         0.131639         1.464929
 H        -0.810532         0.621923        -0.219469
 H        -0.735958        -0.999005         0.063092
 H         1.509233         1.991006        -0.420163
 H         1.824162         1.902242         1.219770
 H         4.411240        -0.664753        -0.029096
 H         2.281565        -1.290162         1.998930
 H         2.757438        -2.972954        -0.260670
 H         1.032555        -2.562761         0.017272
 H         2.204274         0.156008        -2.516717
