19
Iteration:  1007
 C        -0.299480         0.053061         0.500712
 C         1.236868        -0.035696         0.201030
 C         2.128717         1.335412         0.219634
 O         3.503010         0.870167         0.079900
 C         3.292004        -0.568651         0.018865
 C         2.208465        -1.127468         0.947572
 C         1.908398        -2.182297        -0.240568
 C         2.114349        -0.839307        -0.931408
 O         2.153023        -0.614279        -2.308985
 H        -0.863389        -0.164529        -0.407114
 H        -0.411628        -0.856469         1.289901
 H        -0.656494         0.878408         1.044489
 H         1.949185         2.166525        -0.547217
 H         1.935566         1.806348         1.189919
 H         4.019887        -1.396076        -0.191786
 H         2.288004        -1.428999         2.019011
 H         2.705834        -2.952324        -0.506076
 H         1.009589        -2.825332        -0.264709
 H         2.514245         0.205138        -2.479887
