19
Iteration:  1255
 C        -0.103078         0.067336         0.084870
 C         1.388655        -0.031154         0.099764
 C         2.150693         1.323781         0.372837
 O         3.512436         0.928516         0.261107
 C         3.407039        -0.492300         0.032780
 C         2.213637        -1.078899         0.942118
 C         2.049070        -2.178341        -0.068458
 C         2.119946        -0.860831        -0.970251
 O         1.616834        -0.732996        -2.315532
 H        -0.524080         0.963372         0.721263
 H        -0.376281         0.084516        -0.891552
 H        -0.425882        -0.766783         0.739337
 H         1.707629         2.160056        -0.104876
 H         1.886797         1.569174         1.433025
 H         4.487579        -0.897201         0.109829
 H         2.317273        -1.119609         2.057137
 H         2.903428        -2.868642        -0.244837
 H         1.163458        -2.835206         0.106823
 H         2.126115        -1.263564        -2.904561
