19
Iteration:  4907
 C        -0.161793        -0.202079         0.135096
 C         1.365288         0.010417         0.142658
 C         1.952699         1.366874         0.215180
 O         3.375247         1.126145         0.111136
 C         3.439904        -0.340982         0.036110
 C         2.317106        -0.937487         0.989485
 C         2.110554        -2.157259         0.027220
 C         2.110821        -0.902180        -0.913869
 O         1.856207        -1.058994        -2.208748
 H        -0.335464        -1.315129         0.284293
 H        -0.796658         0.407537         0.744313
 H        -0.535672        -0.124355        -0.888497
 H         1.578261         2.013069        -0.532364
 H         1.679328         1.849561         1.152228
 H         4.530883        -0.487422         0.033914
 H         2.479207        -0.894376         2.067745
 H         3.141860        -2.640391        -0.207737
 H         1.073043        -2.535544         0.122575
 H         1.918146        -0.254393        -2.716399
