19
Iteration:   845charge 0 multiplicity 1
 C        -0.249099         0.013987         0.366565
 C         1.293038        -0.014709         0.231981
 C         2.144638         1.338518         0.304425
 O         3.509790         0.924937         0.129045
 C         3.324760        -0.501658        -0.020711
 C         2.231921        -1.067779         0.913759
 C         1.911944        -2.151699        -0.155600
 C         2.101271        -0.846919        -0.929098
 O         2.037228        -0.839146        -2.325384
 H        -0.526939         0.250013         1.368283
 H        -0.877631         0.785081        -0.187545
 H        -0.693534        -0.929890        -0.027001
 H         1.842209         2.099984        -0.461979
 H         2.050133         1.855066         1.328194
 H         4.328021        -0.983308        -0.182293
 H         2.302067        -1.127362         2.054626
 H         2.634555        -2.934360        -0.489858
 H         0.878546        -2.525414        -0.143050
 H         2.268179         0.037941        -2.578807
