19
Iteration:  2190charge 0 multiplicity 1
 C        -0.154851        -0.271804         0.295712
 C         1.389951        -0.140776         0.142255
 C         1.953947         1.316941         0.192280
 O         3.445680         1.018823         0.062721
 C         3.367849        -0.441775         0.080153
 C         2.231178        -1.072969         0.995338
 C         1.975756        -2.229708        -0.021563
 C         2.147841        -0.808434        -0.928987
 O         1.928496        -0.501510        -2.301816
 H        -0.631611         0.522480         1.038377
 H        -0.745997        -0.172745        -0.634204
 H        -0.341647        -1.259433         0.636444
 H         1.585771         2.123398        -0.550317
 H         2.085971         1.764430         1.166424
 H         4.430926        -0.814211        -0.089147
 H         2.232244        -1.411986         2.138727
 H         2.765300        -3.017679        -0.120495
 H         0.889690        -2.710751        -0.102083
 H         2.853003        -0.361362        -2.647189
