19
Iteration:  4699
 C        -0.112911        -0.345006         0.236802
 C         1.336580         0.023047         0.152615
 C         2.015452         1.388835         0.200874
 O         3.356536         1.115916         0.042668
 C         3.363961        -0.388466        -0.003995
 C         2.286971        -0.924482         1.026066
 C         2.007196        -2.109494        -0.003019
 C         2.128720        -0.865812        -0.880597
 O         1.994193        -0.971981        -2.216606
 H        -0.378224        -1.227799         0.941986
 H        -0.648068         0.622453         0.237579
 H        -0.503931        -0.765559        -0.725045
 H         1.696703         2.107904        -0.689975
 H         1.750697         1.863973         1.176604
 H         4.200717        -0.927498        -0.194757
 H         2.495695        -0.866395         2.152227
 H         2.823255        -2.744752        -0.123053
 H         1.022581        -2.474456        -0.049337
 H         1.674458        -0.088886        -2.608872
