19
Iteration:  3628
 C        -0.212893        -0.265980         0.361276
 C         1.333314        -0.094903         0.143327
 C         1.898334         1.327477         0.355224
 O         3.396077         1.011945         0.182645
 C         3.408389        -0.428762         0.054810
 C         2.269165        -1.078697         0.904541
 C         2.056422        -2.108426        -0.222910
 C         2.188005        -0.785883        -0.939585
 O         1.991242        -0.680582        -2.353067
 H        -0.758786        -0.010980        -0.604392
 H        -0.566547        -1.414033         0.731075
 H        -0.475869         0.293772         1.259887
 H         1.645417         2.059621        -0.380138
 H         1.800852         1.637336         1.426004
 H         4.433415        -0.862378        -0.084905
 H         2.287835        -1.402526         1.955931
 H         2.913825        -2.828733        -0.487937
 H         1.110289        -2.683382        -0.259064
 H         2.178268         0.282802        -2.636213
