19
Iteration:  2525charge 0 multiplicity 1
 C        -0.182262        -0.345567         0.316261
 C         1.253041         0.001270         0.149344
 C         1.931258         1.391932         0.206405
 O         3.399860         0.954408         0.141224
 C         3.368707        -0.473475         0.026723
 C         2.280192        -1.040507         0.976357
 C         2.024857        -2.105061        -0.029984
 C         2.152114        -0.795040        -0.939598
 O         1.992402        -0.644096        -2.315459
 H        -0.300617        -0.288245         1.362831
 H        -0.767143         0.411595        -0.216976
 H        -0.523672        -1.305476        -0.075980
 H         1.901481         2.064041        -0.662681
 H         1.844890         1.959231         1.111012
 H         4.441854        -0.893513        -0.097940
 H         2.480628        -1.141484         2.065448
 H         2.794301        -2.788409        -0.334777
 H         1.089867        -2.702567        -0.175154
 H         2.873134        -0.728481        -2.576810
