19
Iteration:  4773charge 0 multiplicity 1
 C        -0.263444        -0.121207         0.321681
 C         1.283567        -0.114774         0.276794
 C         1.926000         1.336897         0.034303
 O         3.336777         1.110202        -0.002629
 C         3.313033        -0.380048         0.035003
 C         2.326280        -0.937970         1.019899
 C         2.134843        -2.161153         0.020743
 C         2.189390        -0.901904        -0.885377
 O         2.035542        -0.948433        -2.232434
 H        -0.713416        -0.927824        -0.148365
 H        -0.664490         0.130114         1.281704
 H        -0.539184         0.701613        -0.317683
 H         1.540223         1.882477        -0.818396
 H         1.595065         1.856908         0.939464
 H         4.316700        -0.664751        -0.047917
 H         2.618253        -0.913435         2.144441
 H         3.086444        -2.911140        -0.207238
 H         1.250716        -2.798371        -0.081462
 H         2.686697        -0.439246        -2.780643
