19
Iteration:  3855charge 0 multiplicity 1
 C        -0.218575        -0.295150         0.091031
 C         1.377337        -0.126075         0.228933
 C         1.975956         1.260116         0.490601
 O         3.408055         0.999037         0.303464
 C         3.392633        -0.333739        -0.123301
 C         2.364006        -1.257527         0.910705
 C         2.083533        -2.158227        -0.249877
 C         2.178473        -0.755625        -0.891400
 O         1.807191        -0.522481        -2.231769
 H        -0.797886         0.671095         0.287668
 H        -0.479881        -0.446508        -1.007739
 H        -0.333346        -1.188440         0.734244
 H         1.693319         1.905392        -0.255006
 H         1.828401         1.821291         1.471564
 H         4.500896        -0.672665        -0.236172
 H         2.533225        -1.490664         1.972236
 H         2.859470        -2.865481        -0.613079
 H         1.107832        -2.598951        -0.448897
 H         1.854367         0.384960        -2.444676
