19
Iteration:  4390
 C        -0.241647        -0.169573         0.094408
 C         1.354456        -0.082887         0.218216
 C         1.985566         1.295021         0.357464
 O         3.323699         1.081375         0.167341
 C         3.394002        -0.364896        -0.015486
 C         2.384492        -1.068169         0.980736
 C         2.171885        -2.129169        -0.102166
 C         2.213931        -0.918975        -0.945796
 O         1.818975        -0.807810        -2.243741
 H        -0.601206        -1.148569         0.573690
 H        -0.644511         0.768639         0.548012
 H        -0.814424        -0.075031        -0.837361
 H         1.630729         2.003072        -0.419264
 H         1.663246         1.801811         1.318633
 H         4.441402        -0.682508         0.031541
 H         2.570018        -1.237428         2.013091
 H         3.062034        -2.755765        -0.221213
 H         1.323724        -2.755543        -0.098446
 H         1.984656         0.111677        -2.655031
