19
Iteration:  4654charge 0 multiplicity 1
 C        -0.233954        -0.087570         0.411492
 C         1.314317        -0.137022         0.195769
 C         1.845326         1.301061         0.086977
 O         3.313251         1.087870         0.034008
 C         3.323471        -0.397175        -0.065251
 C         2.323962        -0.979822         1.007578
 C         2.102956        -2.237203        -0.015656
 C         2.160707        -0.928682        -0.868416
 O         2.105046        -0.772142        -2.304258
 H        -0.316264        -0.344074         1.493278
 H        -0.562444         0.890492         0.051407
 H        -0.904270        -0.876914         0.035875
 H         1.378378         1.668451        -0.914834
 H         1.735200         2.043179         0.886058
 H         4.296011        -0.741706        -0.024239
 H         2.412673        -0.973876         2.173896
 H         3.037580        -2.762813        -0.029211
 H         1.192665        -2.711945         0.165335
 H         3.046131        -0.498886        -2.474391
