19
Iteration:  1579
 C        -0.127690        -0.047117         0.156368
 C         1.392258        -0.088895         0.166127
 C         1.999359         1.287783         0.327542
 O         3.427905         0.980710         0.115762
 C         3.343459        -0.466255        -0.053871
 C         2.236420        -1.100095         0.983430
 C         2.065887        -2.211690         0.009829
 C         2.138721        -0.870197        -0.914241
 O         1.823563        -0.599671        -2.256235
 H        -0.533328         0.215900         1.050423
 H        -0.413236         0.733127        -0.600293
 H        -0.424871        -1.063341        -0.132196
 H         1.691200         1.941664        -0.455684
 H         1.761116         1.827981         1.245067
 H         4.395756        -0.915682        -0.117300
 H         2.362509        -1.186273         2.054245
 H         2.785658        -3.001800        -0.336537
 H         1.080581        -2.740352         0.168987
 H         2.736620        -0.797908        -2.652314
