19
Iteration:   528
 C        -0.028158         0.106765         0.183941
 C         1.415187        -0.025077         0.124945
 C         2.141993         1.301805         0.441231
 O         3.449401         0.937476         0.135608
 C         3.353752        -0.491159        -0.082816
 C         2.320127        -1.037316         0.926804
 C         1.761715        -2.095106        -0.071237
 C         2.005945        -0.898142        -0.913733
 O         1.980732        -0.907027        -2.276890
 H        -0.369649         0.239136         1.205029
 H        -0.398969         1.094299        -0.309375
 H        -0.544361        -0.759586        -0.235300
 H         1.636259         2.124642        -0.058431
 H         1.966581         1.380427         1.451821
 H         4.423103        -0.891908        -0.129867
 H         2.590687        -1.265664         1.963696
 H         2.222180        -3.065550        -0.189620
 H         0.679447        -2.181165         0.119001
 H         1.328434        -0.365025        -2.792656
