19
Iteration:  3895
 C        -0.136586        -0.384738         0.295839
 C         1.307396        -0.101670         0.195817
 C         1.985173         1.245244         0.437101
 O         3.403763         0.972999         0.268774
 C         3.378759        -0.408446        -0.018605
 C         2.275858        -1.170264         0.887605
 C         2.023329        -2.124490        -0.261643
 C         2.193215        -0.726573        -1.002044
 O         1.940420        -0.482485        -2.330303
 H        -0.850827         0.275583         0.760772
 H        -0.665524        -0.621687        -0.664712
 H        -0.195241        -1.205735         1.050961
 H         1.533940         2.175307        -0.263983
 H         1.769512         1.580351         1.449788
 H         4.299538        -0.717363        -0.392749
 H         2.268614        -1.346707         2.018758
 H         2.842258        -2.797570        -0.371413
 H         0.935511        -2.458983        -0.477590
 H         2.286000         0.471417        -2.457031
