19
Iteration:  3500
 C        -0.118482        -0.087988         0.121526
 C         1.376854        -0.102029         0.283561
 C         1.936682         1.292000         0.337890
 O         3.290561         1.036332         0.202612
 C         3.363428        -0.363821        -0.017160
 C         2.321783        -1.083134         0.959789
 C         2.159359        -2.203375        -0.137772
 C         2.197472        -0.831616        -0.916875
 O         1.875645        -0.791949        -2.317008
 H        -0.591512        -0.105523         1.121778
 H        -0.502748         0.684462        -0.464303
 H        -0.551495        -1.092272        -0.192765
 H         1.485151         2.010340        -0.480913
 H         1.736348         1.714949         1.339432
 H         4.514726        -0.600797        -0.132214
 H         2.524661        -1.257646         1.996881
 H         3.066356        -2.898723        -0.319236
 H         1.237340        -2.737711         0.022606
 H         1.628241         0.077167        -2.553816
