19
Iteration:  3620
 C        -0.195142        -0.243162         0.394853
 C         1.277045        -0.092522         0.196900
 C         1.919960         1.270910         0.308552
 O         3.398439         1.044579         0.175220
 C         3.358487        -0.384737         0.051431
 C         2.292628        -1.116856         0.917598
 C         2.070783        -2.170766        -0.287784
 C         2.166603        -0.851984        -0.989110
 O         2.026560        -0.653916        -2.326294
 H        -0.833670         0.233884        -0.327080
 H        -0.579552        -1.254975         0.462894
 H        -0.470247         0.381771         1.254541
 H         1.542223         2.045684        -0.362455
 H         1.796030         1.849205         1.318612
 H         4.436548        -0.839515         0.063902
 H         2.227306        -1.265284         1.976025
 H         2.964933        -2.818338        -0.339675
 H         1.181553        -2.675423        -0.170375
 H         2.305701         0.307597        -2.497731
