19
Iteration:  3907
 C        -0.241738        -0.325303         0.425819
 C         1.331486        -0.106514         0.190434
 C         1.937010         1.279917         0.441213
 O         3.343483         1.013809         0.258482
 C         3.358450        -0.415874        -0.046429
 C         2.305045        -1.140120         0.816861
 C         2.053559        -2.176293        -0.366193
 C         2.196918        -0.808171        -0.944148
 O         2.039303        -0.484612        -2.321716
 H        -0.516098         0.639766         0.863912
 H        -0.708778        -0.539666        -0.581309
 H        -0.498923        -1.257911         1.017345
 H         1.654785         2.183544        -0.302484
 H         1.793498         1.575959         1.494161
 H         4.357430        -0.798901        -0.214472
 H         2.408790        -1.502328         1.882667
 H         2.711556        -2.995433        -0.466346
 H         1.027478        -2.664583        -0.298624
 H         2.410983         0.355390        -2.518206
