19
Iteration:  2169
 C        -0.210394        -0.185523         0.282430
 C         1.315213        -0.138153         0.139960
 C         1.967483         1.263639         0.299482
 O         3.375157         0.962325         0.196528
 C         3.373870        -0.428420        -0.009989
 C         2.350933        -1.001831         0.898189
 C         2.067790        -2.149282        -0.084278
 C         2.187883        -0.893958        -0.922645
 O         1.898398        -0.543481        -2.269258
 H        -0.521889         0.747213         0.794002
 H        -0.589625        -0.144624        -0.762743
 H        -0.629513        -1.099048         0.628225
 H         1.949721         1.889116        -0.615240
 H         1.668070         1.964948         1.056551
 H         4.370674        -0.849077        -0.162776
 H         2.511469        -1.148593         2.064239
 H         2.807669        -2.968382        -0.186566
 H         0.994014        -2.576010         0.066007
 H         2.478827        -0.960662        -2.874244
