19
Iteration:  2946
 C        -0.208247        -0.151385         0.364208
 C         1.311160        -0.025237         0.124757
 C         1.931356         1.346419         0.282802
 O         3.338214         1.029178         0.262147
 C         3.301321        -0.400462        -0.054071
 C         2.341948        -1.019505         0.903314
 C         2.068645        -2.179797        -0.197255
 C         2.138087        -0.894274        -0.919397
 O         2.084033        -0.829655        -2.312368
 H        -0.312878        -0.017900         1.464393
 H        -0.722456         0.579696        -0.200102
 H        -0.549762        -1.205447         0.074542
 H         1.660418         2.176064        -0.439385
 H         1.596441         1.656847         1.330694
 H         4.255872        -0.797957        -0.279698
 H         2.431097        -1.267452         1.882190
 H         3.042320        -2.745980        -0.340087
 H         1.160839        -2.686542        -0.077574
 H         2.125224         0.151037        -2.587604
