19
Iteration:  1425
 C        -0.110319        -0.077586         0.135552
 C         1.360518         0.015395         0.095386
 C         2.073920         1.283800         0.398280
 O         3.441545         0.900249         0.148275
 C         3.401862        -0.485445         0.007540
 C         2.271077        -1.009564         0.919204
 C         1.994900        -2.198860         0.033822
 C         2.141856        -0.876207        -0.962703
 O         1.725473        -0.618512        -2.254778
 H        -0.642231         0.551761         0.843014
 H        -0.293226         0.193891        -1.049212
 H        -0.522278        -1.113384         0.179696
 H         1.956191         2.101464        -0.297605
 H         2.121476         1.601510         1.457562
 H         4.501732        -0.907002         0.145082
 H         2.454258        -0.903537         2.018890
 H         2.907196        -2.884207        -0.118564
 H         1.024686        -2.782252        -0.043240
 H         2.257077        -1.032222        -2.877243
