19
Iteration:  1779
 C        -0.225429        -0.158961         0.096626
 C         1.323011        -0.118119         0.167168
 C         2.069055         1.278690         0.237950
 O         3.488656         0.973988         0.194376
 C         3.448574        -0.410464         0.066184
 C         2.250729        -1.034781         0.943015
 C         2.072896        -2.181182        -0.120934
 C         2.142242        -0.845932        -0.867978
 O         1.769727        -0.573724        -2.183799
 H        -0.486063         0.517477         0.825822
 H        -0.662246         0.047449        -0.902941
 H        -0.595620        -1.223677         0.345316
 H         1.804580         2.040445        -0.556558
 H         1.800841         1.862608         1.176754
 H         4.415248        -0.867656        -0.182854
 H         2.461470        -1.103640         2.079231
 H         2.858415        -3.012584        -0.071104
 H         1.071073        -2.655484        -0.379766
 H         2.275309        -1.203219        -2.682176
