19
Iteration:  1745
 C        -0.144060        -0.211891         0.189025
 C         1.364450        -0.042727         0.231558
 C         2.050324         1.385347         0.207461
 O         3.411326         0.957777         0.235162
 C         3.381168        -0.505879         0.020754
 C         2.287035        -1.047072         0.954879
 C         1.984430        -2.159240        -0.097367
 C         2.095486        -0.850507        -0.904357
 O         1.860080        -0.665350        -2.312134
 H        -0.649304         0.450350         0.763633
 H        -0.466027        -0.102229        -0.864227
 H        -0.297335        -1.193209         0.738878
 H         1.899795         1.937181        -0.769596
 H         1.899512         1.950981         1.132884
 H         4.372087        -0.911794        -0.098000
 H         2.516266        -1.044160         2.067919
 H         2.835329        -2.921503        -0.202456
 H         0.927241        -2.561967        -0.213962
 H         2.440465         0.047688        -2.466047
