19
Iteration:  3683
 C        -0.240359        -0.188037         0.136716
 C         1.356714        -0.123537         0.206826
 C         1.946622         1.250295         0.456972
 O         3.312300         0.982043         0.218367
 C         3.352667        -0.353998        -0.029163
 C         2.432022        -1.134923         0.926526
 C         2.105326        -2.095871        -0.224888
 C         2.209039        -0.770917        -0.901202
 O         1.861412        -0.691537        -2.282303
 H        -0.447605        -0.940660        -0.666471
 H        -0.500248        -0.491083         1.343754
 H        -0.585002         0.816752        -0.169347
 H         1.528626         2.013235        -0.182493
 H         1.965424         1.532964         1.504519
 H         4.436179        -0.719755        -0.225079
 H         2.581517        -1.401145         1.965384
 H         2.962040        -2.883821        -0.507904
 H         1.113145        -2.554572        -0.117100
 H         2.268311         0.131426        -2.703667
