19
Iteration:   853charge 0 multiplicity 1
 C        -0.156078        -0.002155         0.288954
 C         1.340237         0.038731         0.257421
 C         2.113158         1.333764         0.310105
 O         3.494673         0.911613         0.141704
 C         3.329693        -0.474003        -0.027784
 C         2.292001        -1.082435         1.015738
 C         1.877871        -2.164832        -0.187935
 C         2.017156        -0.864378        -0.903115
 O         2.019610        -0.800945        -2.318613
 H        -0.693187         0.311030         1.217277
 H        -0.662469         0.727282        -0.553044
 H        -0.503679        -0.972295         0.064717
 H         1.894997         1.826543        -0.619792
 H         1.889188         1.935570         1.157697
 H         4.201449        -0.954757        -0.365269
 H         2.420585        -1.402104         1.990555
 H         2.557377        -3.032928        -0.435128
 H         0.909378        -2.627957        -0.015516
 H         2.049435         0.144349        -2.570587
