19
Iteration:  2193
 C        -0.129878        -0.274935         0.314049
 C         1.369606        -0.122800         0.136460
 C         1.961676         1.345892         0.203860
 O         3.427697         1.001533         0.033653
 C         3.357631        -0.448210         0.074046
 C         2.220478        -1.087647         0.996794
 C         1.970982        -2.221049        -0.036497
 C         2.151566        -0.811045        -0.909076
 O         1.945994        -0.508988        -2.280042
 H        -0.468280         0.423048         0.981856
 H        -0.689849        -0.208166        -0.667684
 H        -0.368759        -1.337651         0.571415
 H         1.691520         2.100921        -0.468881
 H         1.968418         1.913865         1.147878
 H         4.287803        -0.823512        -0.139259
 H         2.212773        -1.421642         2.060770
 H         2.755000        -2.978518        -0.120443
 H         0.973626        -2.671701        -0.087601
 H         2.883644        -0.283716        -2.617074
