19
Iteration:  1820charge 0 multiplicity 1
 C        -0.191242        -0.056134         0.272764
 C         1.335912        -0.070493         0.275399
 C         1.948451         1.251272         0.407204
 O         3.357675         0.995804         0.103862
 C         3.288269        -0.364017        -0.086269
 C         2.339970        -1.055767         0.978668
 C         1.959171        -2.188749        -0.142300
 C         2.143076        -0.831988        -0.915620
 O         2.166157        -0.728888        -2.341997
 H        -0.533045         0.330796         1.238409
 H        -0.365210         0.747517        -0.534446
 H        -0.689004        -1.070679         0.013364
 H         1.547334         1.859685        -0.409964
 H         1.889309         1.715551         1.381239
 H         4.265031        -0.759962        -0.304147
 H         2.424364        -1.184881         2.103650
 H         2.806355        -2.893832        -0.286541
 H         0.971518        -2.694438        -0.034719
 H         1.480850        -1.376828        -2.758565
