19
Iteration:  1660
 C        -0.227134        -0.067880         0.406352
 C         1.260312        -0.063709         0.148085
 C         1.971233         1.304444         0.313882
 O         3.420399         0.960473         0.151189
 C         3.341975        -0.411829         0.001953
 C         2.298698        -1.014616         0.871435
 C         1.949651        -2.146879        -0.148988
 C         2.120632        -0.879796        -0.947100
 O         2.223049        -0.763626        -2.341519
 H        -0.447508        -0.104812         1.582047
 H        -0.704632         0.852555         0.051406
 H        -0.920909        -0.831583        -0.081016
 H         1.754431         2.051344        -0.487226
 H         1.816045         1.680860         1.367602
 H         4.225959        -0.894278        -0.317814
 H         2.496862        -1.106833         1.980935
 H         2.749288        -2.874147        -0.181108
 H         0.981966        -2.591170         0.069954
 H         1.237097        -0.821130        -2.616669
