19
Iteration:  4009
 C        -0.156522        -0.384679         0.180023
 C         1.333553        -0.131786         0.296825
 C         1.957781         1.311586         0.370075
 O         3.411279         1.066331         0.308126
 C         3.399934        -0.428227        -0.047787
 C         2.424192        -1.149004         0.910394
 C         2.004722        -2.123563        -0.236305
 C         2.110849        -0.783478        -0.929667
 O         1.870977        -0.575406        -2.322808
 H        -0.568351        -1.211287         0.867740
 H        -0.690468         0.579490         0.039669
 H        -0.356743        -0.894262        -0.775579
 H         1.697900         2.231171        -0.352327
 H         1.714002         1.667683         1.452600
 H         4.533331        -0.694324        -0.078693
 H         2.529988        -1.320454         1.932608
 H         2.759194        -2.781385        -0.648993
 H         1.064705        -2.440307        -0.158719
 H         1.958827         0.428789        -2.482161
