19
Iteration:  1805
 C        -0.107775        -0.038319         0.163988
 C         1.363073        -0.132091         0.268342
 C         1.954456         1.300786         0.323452
 O         3.316388         1.019950         0.157200
 C         3.360191        -0.474046        -0.028192
 C         2.367158        -1.135188         0.935393
 C         2.030119        -2.127291        -0.036018
 C         2.060324        -0.874226        -0.923599
 O         2.031317        -0.634740        -2.310313
 H        -0.526919         0.551006         1.098482
 H        -0.375716         0.436697        -0.756017
 H        -0.505903        -0.989008        -0.029092
 H         1.540088         2.087578        -0.287153
 H         1.628161         1.803349         1.256889
 H         4.378651        -0.876528        -0.230999
 H         2.589283        -1.271244         1.941253
 H         2.638344        -2.952559        -0.298534
 H         1.067919        -2.559083         0.058922
 H         1.729164        -1.474824        -2.664540
