19
Iteration:  2972charge 0 multiplicity 1
 C        -0.205368        -0.365417         0.222366
 C         1.339947        -0.028229         0.305459
 C         2.048347         1.296178         0.344035
 O         3.405399         1.079492         0.162537
 C         3.344073        -0.380018         0.045515
 C         2.265549        -1.011390         0.898046
 C         2.012213        -2.050168        -0.159593
 C         2.195030        -0.774910        -0.928629
 O         1.926513        -0.834371        -2.347318
 H        -0.663688        -0.164845         1.195459
 H        -0.645744         0.398247        -0.590921
 H        -0.310290        -1.379073        -0.049714
 H         1.537688         2.008848        -0.316411
 H         1.898200         1.746639         1.216801
 H         4.360676        -0.852383        -0.020432
 H         2.341344        -1.301418         2.050953
 H         2.782540        -2.739303        -0.183903
 H         1.006875        -2.577851        -0.101432
 H         2.436884        -0.142913        -2.892512
