19
Iteration:  4183charge 0 multiplicity 1
 C        -0.169889        -0.160253         0.183756
 C         1.352675        -0.216868         0.262600
 C         1.898640         1.218463         0.349789
 O         3.333217         1.081850         0.165073
 C         3.398823        -0.330313        -0.048521
 C         2.334164        -1.136305         0.940957
 C         2.139480        -2.187577        -0.156307
 C         2.194378        -0.864475        -0.867552
 O         1.859901        -0.606841        -2.276043
 H        -0.471149         0.567944        -0.626341
 H        -0.708742        -1.132537        -0.174813
 H        -0.675131         0.308377         1.104222
 H         1.638892         1.925998        -0.380082
 H         1.660720         1.646175         1.285450
 H         4.481565        -0.694468        -0.262713
 H         2.473691        -1.370043         1.955503
 H         3.133578        -2.829352        -0.229266
 H         1.250378        -2.842507        -0.208956
 H         2.394520         0.097274        -2.582266
