19
Iteration:  1958
 C        -0.214421        -0.204464         0.069271
 C         1.329482        -0.084271         0.179665
 C         1.991062         1.221003         0.468157
 O         3.433683         1.008359         0.129374
 C         3.414965        -0.381473        -0.057528
 C         2.367647        -0.987208         0.982342
 C         2.040236        -2.137134        -0.034704
 C         2.142125        -0.881491        -0.932485
 O         1.876441        -0.611494        -2.281117
 H        -0.819619         0.524321         0.772251
 H        -0.537440         0.124799        -0.899095
 H        -0.687084        -1.113678         0.245422
 H         1.469727         2.004054        -0.137988
 H         2.041711         1.481315         1.579655
 H         4.393443        -0.825120         0.011366
 H         2.560614        -1.086353         1.974652
 H         2.718804        -2.984620        -0.468046
 H         1.004817        -2.458593         0.053975
 H         2.095693        -1.397661        -2.723352
