19
Iteration:  1157charge 0 multiplicity 1
 C        -0.265062        -0.054350         0.546208
 C         1.241817         0.059119         0.255627
 C         2.147887         1.330663         0.203755
 O         3.507612         0.867986         0.050939
 C         3.268884        -0.591202        -0.036170
 C         2.165700        -1.031217         0.892321
 C         1.817437        -2.195545        -0.160447
 C         2.098179        -0.842400        -0.969057
 O         2.298566        -0.628870        -2.315332
 H        -0.902910         0.918370         0.521409
 H        -0.724247        -0.879334         0.029871
 H        -0.121733        -0.336051         1.604165
 H         1.846211         1.979923        -0.635473
 H         1.975007         1.922771         1.147368
 H         4.211138        -1.213889         0.181241
 H         2.260667        -1.101181         1.997995
 H         2.660286        -2.885677        -0.406152
 H         0.804171        -2.638272        -0.206902
 H         1.463030        -0.544549        -2.721927
