19
Iteration:  3392charge 0 multiplicity 1
 C        -0.194465        -0.205336         0.365911
 C         1.287876        -0.063414         0.225487
 C         1.918160         1.266579         0.320287
 O         3.324327         1.029499         0.058595
 C         3.297036        -0.413579        -0.029316
 C         2.300612        -1.061760         0.995214
 C         2.057485        -2.142164        -0.066441
 C         2.126445        -0.837695        -0.936891
 O         2.102363        -0.690114        -2.406150
 H        -0.398805        -0.732888         1.361171
 H        -0.668804         0.717740         0.517505
 H        -0.540992        -0.792707        -0.601847
 H         1.498620         1.832826        -0.451711
 H         1.805614         1.889963         1.291685
 H         4.442018        -0.689938        -0.005905
 H         2.395372        -1.088954         2.058276
 H         2.989364        -2.740487        -0.349166
 H         1.124235        -2.660600        -0.151480
 H         3.055786        -0.526310        -2.529155
