19
Iteration:  4931charge 0 multiplicity 1
 C        -0.178565        -0.360708         0.191376
 C         1.338074        -0.006287         0.201223
 C         2.001757         1.398231         0.184057
 O         3.379155         1.073506         0.083553
 C         3.332045        -0.380746        -0.012804
 C         2.333774        -0.896061         1.029467
 C         2.028428        -2.103517         0.024060
 C         2.180326        -0.854995        -0.884789
 O         1.946618        -0.972312        -2.253009
 H        -0.428411        -1.264043         0.789815
 H        -0.703968         0.501441         0.577033
 H        -0.602875        -0.684250        -0.782071
 H         1.574023         1.894943        -0.701624
 H         1.777760         2.119769         0.978286
 H         4.461173        -0.643476        -0.246661
 H         2.327533        -0.862327         2.026707
 H         2.917284        -2.729152        -0.027052
 H         0.963742        -2.284125         0.143752
 H         2.126142        -0.077415        -2.757765
