19
Iteration:  4288
 C        -0.246985        -0.133934         0.537194
 C         1.244199        -0.212807         0.212116
 C         1.909130         1.323021         0.227695
 O         3.290504         1.062992         0.130823
 C         3.323700        -0.388777        -0.009464
 C         2.284272        -1.123991         0.927252
 C         2.153202        -2.194347        -0.217202
 C         2.111597        -0.917313        -0.975740
 O         2.185942        -0.634571        -2.359388
 H        -0.443843         0.801543         1.410939
 H        -0.944747         0.123495        -0.295724
 H        -0.733071        -1.066820         0.902113
 H         1.548623         1.861105        -0.713798
 H         1.820831         1.916304         1.166162
 H         4.384070        -0.738788        -0.087569
 H         2.458055        -1.375242         1.979233
 H         3.010875        -2.756204        -0.352167
 H         1.225163        -2.817673        -0.296814
 H         2.753882         0.120961        -2.407423
