19
Iteration:   836
 C        -0.298836         0.030235         0.441685
 C         1.292394        -0.009577         0.145486
 C         2.117300         1.334579         0.327080
 O         3.497676         0.906106         0.109794
 C         3.325703        -0.506483        -0.027337
 C         2.182118        -1.047986         0.870500
 C         1.920651        -2.123538        -0.141149
 C         2.170113        -0.837548        -0.959432
 O         2.048230        -0.851007        -2.327400
 H        -0.369050        -0.032956         1.517871
 H        -0.585481         0.895053        -0.032488
 H        -0.832725        -0.952836         0.141192
 H         1.817396         2.208952        -0.337339
 H         2.124858         1.693765         1.425762
 H         4.326094        -1.077080         0.046021
 H         2.238498        -1.063194         2.053910
 H         2.719692        -2.863649        -0.191371
 H         0.894813        -2.528785        -0.242354
 H         2.473407        -0.097740        -2.713769
