19
Iteration:  3807charge 0 multiplicity 1
 C        -0.267684        -0.145941         0.362438
 C         1.263467        -0.139129         0.215106
 C         1.918381         1.245075         0.493400
 O         3.339051         1.022966         0.245317
 C         3.347802        -0.422795        -0.059324
 C         2.334301        -1.211500         0.810013
 C         2.186439        -2.199521        -0.267876
 C         2.124726        -0.756235        -0.983820
 O         2.043633        -0.596200        -2.344045
 H        -0.459570         0.572356         1.152884
 H        -0.832774         0.362131        -0.498190
 H        -0.542171        -1.191614         0.658270
 H         1.573804         2.052667        -0.019297
 H         1.852784         1.575207         1.521572
 H         4.280927        -0.668984        -0.430199
 H         2.433272        -1.478709         1.882293
 H         3.100305        -2.734744        -0.502781
 H         1.256344        -2.868043        -0.197663
 H         2.376213         0.258966        -2.750998
