19
Iteration:  3964
 C        -0.211050        -0.176043         0.533439
 C         1.281290        -0.094463         0.188362
 C         1.896722         1.168825         0.465417
 O         3.307844         1.037380         0.181819
 C         3.320386        -0.383931         0.040722
 C         2.304444        -1.121395         0.862102
 C         2.117339        -2.228931        -0.389492
 C         2.152663        -0.814458        -1.013854
 O         2.133437        -0.550724        -2.414956
 H        -0.535546        -0.220251         1.626921
 H        -0.951807         0.488518         0.006954
 H        -0.599415        -1.213639         0.316572
 H         1.456502         2.030019        -0.229404
 H         1.733080         1.513112         1.553893
 H         4.322484        -0.863936        -0.229219
 H         2.417813        -1.398937         1.898774
 H         3.015877        -2.816849        -0.493346
 H         1.196191        -2.678029        -0.341668
 H         2.597632         0.331059        -2.551381
