19
Iteration:   685charge 0 multiplicity 1
 C        -0.137369         0.124340         0.233635
 C         1.388717        -0.039411         0.242562
 C         2.054223         1.344879         0.425039
 O         3.464848         0.915547         0.157681
 C         3.296922        -0.532875        -0.128794
 C         2.339240        -1.084279         0.897915
 C         1.886501        -2.139677        -0.173458
 C         2.141946        -0.876278        -0.924868
 O         1.988163        -0.812571        -2.251685
 H        -0.347304         1.155661         0.716316
 H        -0.564392         0.211447        -0.766631
 H        -0.668238        -0.855056         0.633695
 H         1.614046         2.087397        -0.286082
 H         1.913510         1.680862         1.444461
 H         4.358953        -0.860896        -0.188892
 H         2.466027        -1.260063         2.027398
 H         2.501204        -3.022235        -0.325619
 H         0.812375        -2.486026        -0.102758
 H         1.088881        -0.717341        -2.435923
