19
Iteration:  2508charge 0 multiplicity 1
 C        -0.187933        -0.211886         0.246166
 C         1.330269        -0.083018         0.228252
 C         1.996944         1.289782         0.201960
 O         3.378129         0.980599         0.089636
 C         3.320379        -0.391499        -0.005542
 C         2.305384        -1.025721         1.023716
 C         2.077946        -2.166489        -0.087395
 C         2.107602        -0.860026        -0.882494
 O         1.983543        -0.609858        -2.285083
 H        -0.777855        -0.417519         1.257909
 H        -0.703124         0.621781        -0.249571
 H        -0.413189        -1.166361        -0.282814
 H         1.569146         1.807644        -0.679663
 H         1.746058         1.787670         1.192529
 H         4.217777        -0.896945        -0.187202
 H         2.268600        -1.123097         2.107798
 H         2.956881        -2.879700        -0.126046
 H         1.182934        -2.698008         0.126876
 H         2.811132        -0.425984        -2.652391
