19
Iteration:  3388charge 0 multiplicity 1
 C        -0.220750        -0.195278         0.354341
 C         1.301613        -0.061141         0.200439
 C         1.896000         1.256775         0.333067
 O         3.323231         1.018693         0.072779
 C         3.320198        -0.417711        -0.016969
 C         2.296174        -1.060722         0.983764
 C         2.105174        -2.145637        -0.035095
 C         2.101221        -0.838470        -0.908348
 O         2.093416        -0.675997        -2.411373
 H        -0.355888        -0.748200         1.239046
 H        -0.613422         0.918672         0.383265
 H        -0.643711        -0.682954        -0.472845
 H         1.502277         1.867618        -0.522468
 H         1.763720         1.771806         1.176023
 H         4.295200        -0.826067        -0.236793
 H         2.562426        -1.095265         2.097272
 H         2.996524        -2.738633        -0.357468
 H         1.209877        -2.758176        -0.161492
 H         3.067602        -0.495334        -2.587678
