19
Iteration:  2400charge 0 multiplicity 1
 C        -0.141689        -0.187403         0.384064
 C         1.370710        -0.053344         0.217353
 C         1.932144         1.320598         0.288224
 O         3.312623         1.011442         0.186367
 C         3.390490        -0.362758        -0.049451
 C         2.245482        -1.084591         0.950074
 C         1.943271        -2.121617        -0.128869
 C         2.245320        -0.838742        -0.956713
 O         2.048424        -0.795122        -2.369075
 H        -0.530620         0.664732         0.839387
 H        -0.747950        -0.290381        -0.538231
 H        -0.257219        -1.105117         0.960756
 H         1.496365         1.943057        -0.527633
 H         1.783944         1.935484         1.136564
 H         4.353763        -0.740757        -0.156176
 H         2.294629        -1.348871         1.986879
 H         2.635671        -3.016118        -0.337324
 H         0.924561        -2.438990        -0.274356
 H         2.496455         0.015791        -2.546566
