19
Iteration:  3651charge 0 multiplicity 1
 C        -0.115057        -0.354644         0.195449
 C         1.332518        -0.018952         0.205810
 C         1.981156         1.317535         0.471957
 O         3.409070         1.024302         0.298139
 C         3.325387        -0.363152        -0.081210
 C         2.340866        -1.028720         0.888526
 C         1.975121        -2.089836        -0.223771
 C         2.128970        -0.813842        -0.985821
 O         1.944005        -0.746988        -2.339410
 H        -0.434540        -0.604166        -0.862760
 H        -0.474271        -1.291625         0.980352
 H        -0.747961         0.395605         0.708220
 H         1.725645         2.092261        -0.201103
 H         2.063838         1.610476         1.576849
 H         4.419280        -0.782612        -0.144946
 H         2.431228        -1.077712         1.962864
 H         2.743709        -2.954149        -0.303605
 H         1.057599        -2.610095        -0.067036
 H         1.991421         0.155711        -2.565308
