19
Iteration:  2992
 C        -0.172755        -0.284998         0.134577
 C         1.358576        -0.063803         0.143097
 C         1.893883         1.335298         0.393433
 O         3.384352         0.999693         0.105436
 C         3.389804        -0.381469        -0.008979
 C         2.364730        -1.049371         0.982968
 C         2.055531        -2.156084        -0.081195
 C         2.140481        -0.844752        -0.888167
 O         1.895336        -0.706332        -2.248819
 H        -0.590198         0.038830         1.098130
 H        -0.587898         0.309667        -0.771177
 H        -0.396775        -1.333671        -0.009742
 H         1.662127         2.215149        -0.316292
 H         1.871849         1.741069         1.416535
 H         4.416883        -0.731004        -0.150712
 H         2.457167        -0.953174         2.085027
 H         2.766558        -2.889961        -0.339677
 H         1.025743        -2.512656        -0.098467
 H         2.585030        -0.090316        -2.649595
