19
Iteration:   934
 C        -0.193661        -0.012645         0.269821
 C         1.363074         0.022350         0.275132
 C         2.081780         1.295657         0.358526
 O         3.499129         0.905758         0.192698
 C         3.338606        -0.485354        -0.090286
 C         2.237030        -1.111640         0.939605
 C         1.898967        -2.125989        -0.167335
 C         2.093516        -0.806627        -0.958857
 O         1.969964        -0.798321        -2.303109
 H        -0.525159         0.980426        -0.015951
 H        -0.507976        -0.781156        -0.485017
 H        -0.657236        -0.186124         1.315635
 H         1.739334         2.055915        -0.317899
 H         1.970797         1.780855         1.372894
 H         4.287504        -1.090536        -0.238923
 H         2.560364        -1.238151         2.048358
 H         2.653735        -2.879218        -0.396172
 H         0.864430        -2.525842        -0.276681
 H         2.331755        -0.003628        -2.680193
