19
Iteration:  1645charge 0 multiplicity 1
 C        -0.107375        -0.112801         0.341195
 C         1.398667        -0.032380         0.232675
 C         1.982441         1.330983         0.251406
 O         3.360289         0.989453         0.215278
 C         3.336445        -0.465234        -0.092523
 C         2.281685        -1.067622         0.958799
 C         1.911328        -2.173532        -0.056333
 C         2.141697        -0.848428        -0.972294
 O         2.103659        -0.694986        -2.340565
 H        -0.443395        -0.272780         1.256884
 H        -0.640704         0.803089         0.001128
 H        -0.452546        -0.896655        -0.340706
 H         1.637907         1.886895        -0.560603
 H         1.753733         1.984439         1.049350
 H         4.398238        -0.779537         0.021506
 H         2.297694        -1.167231         2.021570
 H         2.520256        -3.077313        -0.327947
 H         0.843410        -2.493995        -0.147449
 H         1.388277        -1.118138        -2.844292
