19
Iteration:  3171
 C        -0.150060        -0.249316         0.173882
 C         1.353449        -0.062652         0.238661
 C         1.890454         1.326780         0.287252
 O         3.350560         1.029727         0.123810
 C         3.361175        -0.424171        -0.017339
 C         2.307910        -1.085501         0.984807
 C         2.113083        -2.201725        -0.059473
 C         2.138293        -0.815256        -0.890460
 O         1.916910        -0.646913        -2.273988
 H        -0.640810        -0.005053         1.111785
 H        -0.474254         0.428175        -0.649594
 H        -0.388908        -1.272895        -0.181607
 H         1.652953         1.804205        -0.629874
 H         1.784369         1.840578         1.195554
 H         4.310984        -0.831404        -0.262019
 H         2.521438        -1.106983         2.132464
 H         2.935700        -2.882437        -0.253170
 H         1.216778        -2.701269        -0.013016
 H         2.676212        -0.104528        -2.574294
