19
Iteration:  1705
 C        -0.205589        -0.017936         0.405141
 C         1.331347        -0.033610         0.224083
 C         1.996700         1.327592         0.356903
 O         3.290927         1.026260         0.047556
 C         3.298729        -0.508743        -0.040570
 C         2.269180        -1.094720         0.973945
 C         1.973704        -2.183078        -0.149013
 C         2.175489        -0.888885        -0.975939
 O         2.223710        -0.777684        -2.347215
 H        -0.427363         0.687305         1.372036
 H        -0.547256         0.385802        -0.564793
 H        -0.642535        -1.026671         0.538328
 H         1.504829         2.021261        -0.399034
 H         1.904467         1.529464         1.451223
 H         4.338348        -0.905269         0.064764
 H         2.268827        -1.232377         2.115014
 H         2.744591        -2.896187        -0.421163
 H         0.967888        -2.591966        -0.138073
 H         1.641574        -0.012277        -2.689478
