19
Iteration:  4181
 C        -0.178709        -0.151070         0.199175
 C         1.347762        -0.245476         0.260765
 C         1.899384         1.224352         0.322892
 O         3.314402         1.067872         0.168897
 C         3.395997        -0.319691        -0.045747
 C         2.338571        -1.134325         0.945001
 C         2.134342        -2.188599        -0.164733
 C         2.201959        -0.852236        -0.879423
 O         1.878194        -0.603561        -2.267157
 H        -0.405382         0.541733        -0.554643
 H        -0.664299        -1.157760        -0.079881
 H        -0.661592         0.392776         1.056702
 H         1.680415         1.977196        -0.382681
 H         1.687265         1.639329         1.345976
 H         4.446628        -0.706845        -0.289306
 H         2.485163        -1.341806         1.938562
 H         3.099787        -2.830226        -0.234807
 H         1.234555        -2.905469        -0.172580
 H         2.390887         0.115237        -2.629065
