19
Iteration:  3734
 C        -0.271231        -0.243292         0.429715
 C         1.290103        -0.109310         0.199739
 C         1.888930         1.219131         0.335201
 O         3.323190         0.948755         0.178208
 C         3.348025        -0.470912        -0.040955
 C         2.375226        -1.099479         0.883903
 C         2.107318        -2.145970        -0.280680
 C         2.143309        -0.785337        -0.937067
 O         2.089525        -0.511925        -2.297281
 H        -0.557339        -1.135841         0.994115
 H        -0.569220         0.568440         0.950991
 H        -0.648074        -0.348735        -0.579550
 H         1.544514         1.994299        -0.495840
 H         1.663684         1.828661         1.248183
 H         4.312547        -0.888758        -0.158435
 H         2.476519        -1.194140         2.009279
 H         2.950135        -2.761006        -0.373877
 H         1.098040        -2.637760        -0.271365
 H         2.598508         0.355380        -2.422026
