19
Iteration:  3072charge 0 multiplicity 1
 C        -0.170821        -0.312298         0.429034
 C         1.308335        -0.085443         0.158593
 C         1.957760         1.332524         0.287931
 O         3.323931         1.034731         0.176551
 C         3.342484        -0.421030         0.010408
 C         2.260616        -0.965467         0.938141
 C         1.969259        -2.143463        -0.112777
 C         2.166533        -0.821837        -0.974183
 O         2.148970        -0.749607        -2.405062
 H        -0.466956         0.374231         1.240647
 H        -0.814553         0.049360        -0.505379
 H        -0.356137        -1.387602         0.659614
 H         1.654953         1.978841        -0.674125
 H         1.745980         1.867904         1.217680
 H         4.383007        -0.804489        -0.110641
 H         2.304694        -1.061333         2.145079
 H         2.675770        -2.962953        -0.173532
 H         0.966668        -2.574126        -0.034036
 H         2.386704         0.109232        -2.881818
