19
Iteration:   291charge 0 multiplicity 1
 C        -0.113937         0.055743         0.420273
 C         1.357455         0.019893         0.171759
 C         2.126167         1.304507         0.196080
 O         3.513834         0.772985         0.102838
 C         3.351679        -0.637312        -0.052463
 C         2.185640        -1.011826         0.980022
 C         1.675658        -2.063212         0.006172
 C         2.078221        -0.900962        -0.928096
 O         2.147735        -0.585485        -2.375004
 H        -0.387932         0.736192         1.249204
 H        -0.616030         0.422441        -0.470180
 H        -0.565658        -1.006015         0.645526
 H         1.871668         1.821240        -0.673448
 H         1.924646         1.864296         1.073955
 H         4.277707        -1.206277        -0.077318
 H         2.126555        -0.894405         2.116627
 H         2.241057        -3.045708        -0.164370
 H         0.584081        -2.311884         0.149192
 H         2.094094        -1.431899        -2.947185
