19
Iteration:  2196charge 0 multiplicity 1
 C        -0.110208        -0.289944         0.310530
 C         1.339689        -0.094099         0.142398
 C         1.980027         1.359641         0.223013
 O         3.408840         0.984746         0.013559
 C         3.336868        -0.446170         0.061509
 C         2.220080        -1.102610         0.994129
 C         1.971280        -2.204231        -0.055840
 C         2.157465        -0.827183        -0.893301
 O         1.969095        -0.514923        -2.260995
 H        -0.418609         0.435363         1.053211
 H        -0.614879        -0.193546        -0.651748
 H        -0.386868        -1.351045         0.560370
 H         1.733446         2.110678        -0.533648
 H         1.834195         1.982340         1.170522
 H         4.322883        -0.903668        -0.174399
 H         2.201728        -1.353776         1.994701
 H         2.756736        -2.950046        -0.128865
 H         1.028171        -2.640057        -0.066282
 H         2.803432        -0.243734        -2.579629
