19
Iteration:   758
 C        -0.116223        -0.059843         0.332131
 C         1.337065        -0.034646         0.222982
 C         2.095979         1.354506         0.177643
 O         3.509786         0.911554         0.068393
 C         3.323982        -0.544149         0.078335
 C         2.211936        -1.083754         0.963539
 C         1.868661        -2.137266        -0.091702
 C         2.085733        -0.901818        -0.900655
 O         1.967773        -0.659747        -2.311324
 H        -0.404920        -0.300602         1.330800
 H        -0.478839         0.936251         0.157868
 H        -0.592032        -0.804496        -0.355057
 H         1.815389         1.889020        -0.763630
 H         1.998331         1.992664         1.118390
 H         4.254390        -1.089617        -0.152390
 H         2.309358        -1.246224         2.058092
 H         2.580434        -2.947081        -0.249846
 H         0.923689        -2.620216        -0.117867
 H         2.322520         0.188546        -2.451700
