19
Iteration:  1718charge 0 multiplicity 1
 C        -0.185008        -0.074618         0.303101
 C         1.306809        -0.110065         0.194898
 C         1.926740         1.261664         0.322994
 O         3.391387         0.970198         0.094071
 C         3.379653        -0.405527        -0.010424
 C         2.338434        -1.111654         0.922525
 C         1.902920        -2.143100        -0.115188
 C         2.139030        -0.832878        -0.881896
 O         2.161013        -0.753575        -2.326855
 H        -0.556191         0.754405         1.186551
 H        -0.830742         0.300212        -0.551134
 H        -0.600266        -1.010844         0.697635
 H         1.634191         2.115709        -0.450134
 H         1.797685         1.862364         1.263928
 H         4.402266        -0.790298        -0.348364
 H         2.492346        -1.205384         1.994967
 H         2.513722        -3.025803        -0.192183
 H         0.858820        -2.421053        -0.109513
 H         1.811280         0.087141        -2.526896
