19
Iteration:  1162
 C        -0.286034        -0.081529         0.553805
 C         1.281433         0.038646         0.183898
 C         2.161943         1.328361         0.205613
 O         3.512452         0.838094         0.026813
 C         3.281186        -0.548154         0.005732
 C         2.128831        -1.025645         0.909375
 C         1.809341        -2.175423        -0.161951
 C         2.118499        -0.845176        -0.967174
 O         2.296476        -0.619755        -2.303423
 H        -0.819560         0.805932         0.675202
 H        -0.827088        -0.915035        -0.068830
 H        -0.215016        -0.259786         1.641486
 H         1.765028         2.024883        -0.587998
 H         2.089108         1.899672         1.126210
 H         4.134976        -1.153198         0.051011
 H         2.266414        -1.089623         1.987540
 H         2.604976        -2.918622        -0.350448
 H         0.841335        -2.698141        -0.071953
 H         1.345225        -0.334977        -2.661708
