19
Iteration:  1981charge 0 multiplicity 1
 C        -0.059165        -0.208195         0.209297
 C         1.376699         0.009971         0.216821
 C         1.969912         1.366109         0.397316
 O         3.345344         1.024058         0.174548
 C         3.350674        -0.367862        -0.004538
 C         2.302602        -1.172789         0.901323
 C         1.957644        -2.130071        -0.154496
 C         2.143286        -0.827269        -0.928231
 O         1.988790        -0.710432        -2.270727
 H        -0.756245         0.475322         0.866948
 H        -0.368564         0.113076        -0.787230
 H        -0.409208        -1.179908         0.331637
 H         1.505964         2.043146        -0.395775
 H         1.951127         1.854289         1.438296
 H         4.355380        -0.736651        -0.276372
 H         2.489394        -1.375535         1.940354
 H         2.860276        -2.799086        -0.444126
 H         1.012951        -2.689203        -0.206744
 H         1.569334        -1.604407        -2.496561
