19
Iteration:  4642charge 0 multiplicity 1
 C        -0.164442        -0.058371         0.451947
 C         1.263862        -0.099443         0.180133
 C         1.819432         1.267118         0.076578
 O         3.278267         1.003494        -0.008404
 C         3.325368        -0.325389        -0.023653
 C         2.279818        -1.032719         0.952470
 C         2.172450        -2.198374         0.000741
 C         2.130638        -0.905046        -0.889431
 O         2.146053        -0.754028        -2.218997
 H        -0.383538         0.235872         1.482443
 H        -0.698407         0.779898         0.010854
 H        -0.595226        -0.962060         0.029296
 H         1.538480         1.896884        -0.870254
 H         1.551295         1.858618         0.969702
 H         4.272927        -0.758734        -0.269349
 H         2.371177        -1.036485         2.109481
 H         2.941840        -2.968754        -0.201656
 H         1.346449        -2.853023         0.065346
 H         2.990158        -0.809190        -2.598654
