19
Iteration:  2868charge 0 multiplicity 1
 C        -0.206622        -0.311991         0.346781
 C         1.317499        -0.080700         0.149175
 C         1.994312         1.312476         0.339844
 O         3.381347         1.030509         0.095246
 C         3.303771        -0.450216        -0.050423
 C         2.294253        -1.000115         0.934533
 C         1.969109        -2.089976        -0.024101
 C         2.125142        -0.848219        -0.923292
 O         2.063791        -0.647336        -2.371297
 H        -0.666546         0.035615         1.343450
 H        -0.679173        -0.035079        -0.570764
 H        -0.294999        -1.460404         0.314382
 H         1.706077         2.115266        -0.352793
 H         1.844338         1.597204         1.306271
 H         4.368099        -0.817133         0.025618
 H         2.552573        -1.044307         1.988901
 H         2.667914        -3.006462        -0.110070
 H         0.976230        -2.592630        -0.091940
 H         2.883650        -0.142988        -2.636418
