19
Iteration:  1039charge 0 multiplicity 1
 C        -0.061261        -0.022377         0.154729
 C         1.440520        -0.084401         0.285802
 C         2.031275         1.226700         0.267740
 O         3.472019         0.929533         0.147587
 C         3.364533        -0.549737        -0.044748
 C         2.311375        -1.161884         0.998880
 C         1.725620        -2.159935        -0.091303
 C         2.149701        -0.882759        -0.910431
 O         1.883882        -0.486947        -2.254013
 H        -0.326838        -0.404969        -0.875883
 H        -0.553046        -0.844769         0.897142
 H        -0.438486         0.951336         0.337438
 H         1.817603         1.875426        -0.668406
 H         1.963110         1.717070         1.245502
 H         4.341380        -1.123213        -0.249122
 H         2.422682        -1.345862         2.089764
 H         2.394474        -3.057280        -0.309385
 H         0.630320        -2.280945         0.030680
 H         2.565660         0.193139        -2.640796
