19
Iteration:   359charge 0 multiplicity 1
 C        -0.114833         0.248878         0.197689
 C         1.423444        -0.002961         0.121781
 C         2.058352         1.359369         0.283393
 O         3.529609         0.869687         0.251094
 C         3.354780        -0.597302        -0.111574
 C         2.331986        -1.070581         0.915196
 C         1.756538        -2.244538         0.015445
 C         2.074864        -0.939589        -0.955565
 O         1.986659        -0.731959        -2.252945
 H        -0.496568         0.409153         1.243619
 H        -0.394909         1.169342        -0.312936
 H        -0.742703        -0.586701        -0.316051
 H         1.873688         2.062070        -0.473397
 H         1.900487         1.806028         1.199305
 H         4.258632        -1.058247        -0.293177
 H         2.480830        -1.076036         1.944611
 H         2.447138        -3.133131        -0.296516
 H         0.800166        -2.626747         0.403939
 H         1.057692        -1.066199        -2.587084
