19
Iteration:  4292
 C        -0.263353        -0.099347         0.551367
 C         1.251395        -0.190028         0.214428
 C         1.898531         1.332167         0.221216
 O         3.301478         1.049982         0.118620
 C         3.295189        -0.412502        -0.013428
 C         2.303609        -1.127216         0.940002
 C         2.146121        -2.184231        -0.215747
 C         2.150754        -0.911196        -0.986537
 O         2.175027        -0.627935        -2.360659
 H        -0.418967         0.528153         1.449783
 H        -0.905088         0.075065        -0.334865
 H        -0.701087        -1.095091         0.815732
 H         1.478267         1.811494        -0.684914
 H         1.642679         1.943580         1.222894
 H         4.362972        -0.768876        -0.113481
 H         2.288559        -1.368931         1.974824
 H         3.105231        -2.850126        -0.432871
 H         1.314804        -2.869291        -0.129423
 H         2.874224         0.099035        -2.361456
