19
Iteration:  1610charge 0 multiplicity 1
 C        -0.252696        -0.186466         0.152272
 C         1.329087        -0.024086         0.178436
 C         2.098760         1.320094         0.185456
 O         3.474025         0.943176         0.156190
 C         3.402228        -0.488066         0.035554
 C         2.276463        -1.004641         1.019973
 C         2.047682        -2.163295        -0.104436
 C         2.147893        -0.885648        -0.917781
 O         1.855391        -0.528895        -2.169857
 H        -0.773009        -0.459403         1.057155
 H        -0.745991         0.670885        -0.346647
 H        -0.528422        -1.051056        -0.408726
 H         1.926689         1.693546        -0.794298
 H         1.878373         1.798958         1.117025
 H         4.450795        -1.047301         0.039195
 H         2.409761        -1.090604         2.123470
 H         2.824509        -2.862177        -0.532548
 H         1.007628        -2.567438         0.093627
 H         1.742430        -1.366642        -2.638726
