19
Iteration:  1634charge 0 multiplicity 1
 C        -0.077380        -0.180226         0.259599
 C         1.381269        -0.039639         0.239851
 C         2.023820         1.356423         0.188242
 O         3.377923         1.000149         0.209327
 C         3.358842        -0.458760        -0.004068
 C         2.245196        -1.101455         1.002478
 C         1.861759        -2.140493        -0.096719
 C         2.194875        -0.854252        -0.913000
 O         2.017952        -0.614120        -2.334123
 H        -0.439915        -0.407855         1.145925
 H        -0.511050         0.781165        -0.099965
 H        -0.478873        -0.965691        -0.397574
 H         1.818740         1.728614        -0.737125
 H         1.774578         1.915476         1.040892
 H         4.307335        -0.833063        -0.476866
 H         2.502859        -1.320192         2.009990
 H         2.663471        -2.932502        -0.180258
 H         0.836031        -2.530436         0.109698
 H         1.391972        -1.431612        -2.453440
