19
Iteration:  2237charge 0 multiplicity 1
 C        -0.255511        -0.124489         0.369190
 C         1.352992        -0.099191         0.234266
 C         1.938880         1.306891         0.297129
 O         3.386436         1.051341         0.074683
 C         3.284214        -0.405693        -0.042698
 C         2.327738        -1.184154         0.957587
 C         2.033214        -2.165000        -0.056035
 C         2.124010        -0.850082        -0.943325
 O         2.144047        -0.737172        -2.366714
 H        -0.523375         0.218999         1.312100
 H        -0.810655         0.683664        -0.265944
 H        -0.815992        -1.094604         0.100426
 H         1.598139         1.927229        -0.538719
 H         1.765684         1.892107         1.210934
 H         4.262661        -0.697782        -0.147946
 H         2.307121        -1.309680         2.039543
 H         2.771804        -2.961928        -0.261428
 H         1.030657        -2.547211         0.070656
 H         2.321206         0.264894        -2.568838
