19
Iteration:  4988charge 0 multiplicity 1
 C        -0.245588        -0.069456         0.458586
 C         1.273065        -0.098824         0.271392
 C         1.789890         1.266163         0.091176
 O         3.319359         1.044741        -0.137221
 C         3.277359        -0.362055         0.014557
 C         2.268353        -1.004102         1.020117
 C         2.157782        -2.176737        -0.020258
 C         2.193101        -0.948759        -0.897427
 O         2.213968        -0.780943        -2.250899
 H        -0.637236        -0.250550         1.454998
 H        -0.703704         0.940749         0.201485
 H        -0.813739        -0.730164        -0.314453
 H         1.341008         1.737024        -0.821661
 H         1.777039         1.806910         1.053220
 H         4.415035        -0.614754        -0.072794
 H         2.444265        -1.221617         2.116750
 H         2.900625        -2.896956        -0.005946
 H         1.298532        -2.847154        -0.040445
 H         2.931489        -0.272893        -2.549218
