19
Iteration:  3896charge 0 multiplicity 1
 C        -0.144739        -0.382341         0.307223
 C         1.306173        -0.100488         0.197994
 C         1.982286         1.252203         0.428557
 O         3.399074         0.977473         0.269147
 C         3.375069        -0.410533        -0.016537
 C         2.277499        -1.169391         0.880950
 C         2.026667        -2.130499        -0.274201
 C         2.203009        -0.734610        -0.994267
 O         1.947119        -0.482015        -2.331233
 H        -0.864384         0.336460         0.768196
 H        -0.689110        -0.594889        -0.670157
 H        -0.182544        -1.222009         1.071018
 H         1.549808         2.158605        -0.228568
 H         1.760108         1.561279         1.463468
 H         4.298507        -0.717978        -0.446685
 H         2.267699        -1.365729         2.006189
 H         2.824450        -2.815481        -0.337881
 H         0.943746        -2.458408        -0.465396
 H         2.297647         0.450553        -2.446679
