19
Iteration:  3842charge 0 multiplicity 1
 C        -0.123959        -0.171747         0.143377
 C         1.336210        -0.195067         0.266311
 C         1.927047         1.165012         0.467263
 O         3.353310         1.032598         0.276057
 C         3.423211        -0.363699        -0.051796
 C         2.342164        -1.197700         0.860025
 C         2.153229        -2.171541        -0.318614
 C         2.175522        -0.727135        -0.923747
 O         1.831497        -0.558858        -2.240473
 H        -0.409575         0.792013         0.628157
 H        -0.505293        -0.300024        -0.932533
 H        -0.878305        -0.822229         0.697854
 H         1.541181         1.789909        -0.208806
 H         1.670471         1.499801         1.496579
 H         4.384335        -0.792511        -0.286921
 H         2.422516        -1.488673         1.954295
 H         2.960761        -2.816756        -0.528776
 H         1.198725        -2.768820        -0.131615
 H         1.910746         0.420185        -2.489556
