19
Iteration:  3816
 C        -0.232467        -0.072671         0.306797
 C         1.279477        -0.080747         0.227018
 C         1.913485         1.249149         0.534339
 O         3.283793         0.998771         0.235852
 C         3.348573        -0.395093        -0.040486
 C         2.389050        -1.239771         0.902062
 C         2.205722        -2.247962        -0.312682
 C         2.179057        -0.797695        -0.956639
 O         1.961709        -0.578201        -2.402532
 H        -0.517840         0.645067         1.048660
 H        -0.792824         0.019480        -0.604811
 H        -0.692766        -0.980749         0.657962
 H         1.595226         2.025522        -0.237774
 H         1.746082         1.495437         1.560097
 H         4.393633        -0.747763        -0.137524
 H         2.621833        -1.470778         1.923462
 H         3.090773        -2.927249        -0.627628
 H         1.392439        -2.984649        -0.199059
 H         2.289256         0.364006        -2.566930
