19
Iteration:  2652charge 0 multiplicity 1
 C        -0.229436        -0.309344         0.183597
 C         1.327589        -0.065142         0.209588
 C         2.056363         1.283168         0.264319
 O         3.427207         1.031855         0.217727
 C         3.327238        -0.311759        -0.081102
 C         2.320174        -1.100252         0.969037
 C         2.049037        -2.124494        -0.060402
 C         2.127384        -0.878324        -0.916118
 O         1.989348        -0.578770        -2.269955
 H        -0.884864         0.063613         0.932737
 H        -0.504548         0.272890        -0.695890
 H        -0.266683        -1.486835         0.138894
 H         1.706064         1.937013        -0.509614
 H         1.716450         1.963595         1.058378
 H         4.373779        -0.728750        -0.309636
 H         2.383766        -1.241250         2.065576
 H         2.754169        -2.995408        -0.104270
 H         0.973861        -2.403806        -0.096043
 H         1.404429        -1.395995        -2.390237
