19
Iteration:  3759charge 0 multiplicity 1
 C        -0.147463        -0.421824         0.491295
 C         1.306278        -0.083360         0.215121
 C         1.930096         1.321423         0.379596
 O         3.348686         1.045426         0.173198
 C         3.318547        -0.385371        -0.054323
 C         2.258270        -1.187534         0.884939
 C         1.898570        -2.109224        -0.292835
 C         2.166861        -0.800316        -0.967915
 O         2.173938        -0.564023        -2.369738
 H        -0.375267        -0.801114         1.496881
 H        -0.578049         0.546415         0.593457
 H        -0.480340        -1.037551        -0.289245
 H         1.697908         2.152613        -0.387069
 H         1.730564         1.898468         1.242360
 H         4.445166        -0.710721        -0.081581
 H         2.253722        -1.496551         1.913062
 H         2.659336        -3.019764        -0.418926
 H         0.859282        -2.339570        -0.279418
 H         2.705975         0.250637        -2.445096
