19
Iteration:  4950
 C        -0.236431        -0.270665         0.305078
 C         1.253481        -0.087336         0.158880
 C         1.890990         1.338920         0.076184
 O         3.385223         1.059374         0.010176
 C         3.385411        -0.325362        -0.016468
 C         2.366612        -0.933383         0.991525
 C         2.014213        -2.155161         0.075778
 C         2.190867        -0.901554        -0.820639
 O         2.042987        -0.841770        -2.284036
 H        -0.392668        -0.930736         1.218594
 H        -0.779900         0.648552         0.431984
 H        -0.544703        -0.628594        -0.662502
 H         1.682604         1.993753        -0.732276
 H         1.690252         1.772716         1.046280
 H         4.242682        -0.928388         0.052926
 H         2.507090        -1.043916         2.073764
 H         2.978975        -2.779718         0.038995
 H         0.975893        -2.489445         0.164790
 H         2.460161         0.063857        -2.424709
