19
Iteration:  4444charge 0 multiplicity 1
 C        -0.237264        -0.255921         0.473362
 C         1.248538        -0.019882         0.213488
 C         1.903871         1.377114         0.214095
 O         3.352314         0.986929         0.071636
 C         3.341605        -0.363089        -0.013687
 C         2.347111        -1.040883         0.958354
 C         2.016705        -2.154036        -0.080044
 C         2.192881        -0.846144        -0.986812
 O         2.180846        -0.803339        -2.325306
 H        -0.803139        -1.061917        -0.177529
 H        -0.415674        -0.638430         1.486502
 H        -0.705089         0.630314         0.053817
 H         1.628978         2.026261        -0.652717
 H         1.621999         1.813642         1.114653
 H         4.361603        -0.773049        -0.077353
 H         2.329935        -0.927617         1.985826
 H         2.765005        -2.871824        -0.119429
 H         1.031697        -2.491920        -0.156054
 H         1.955175         0.134799        -2.670680
