19
Iteration:   374
 C        -0.102588         0.188292         0.149045
 C         1.354448         0.053123         0.124277
 C         2.203012         1.317188         0.400692
 O         3.476693         0.873981         0.177148
 C         3.368201        -0.511648        -0.028312
 C         2.331171        -1.098618         0.929230
 C         1.787295        -2.178068        -0.023711
 C         2.041193        -0.909644        -0.888042
 O         1.938575        -0.859428        -2.345329
 H        -0.399596         0.334393         1.177544
 H        -0.434589         1.058976        -0.564334
 H        -0.618169        -0.636958        -0.221737
 H         2.002738         2.230800        -0.318020
 H         2.025248         1.632824         1.499266
 H         4.489151        -0.889642        -0.228802
 H         2.454746        -1.121205         2.051467
 H         2.332898        -3.077254        -0.126895
 H         0.698579        -2.371285         0.037406
 H         1.073633        -0.585083        -2.498632
