19
Iteration:  2799charge 0 multiplicity 1
 C        -0.199282        -0.083142         0.172029
 C         1.327084        -0.073853         0.236084
 C         1.944080         1.324041         0.246126
 O         3.317979         1.057654         0.253841
 C         3.337620        -0.349234        -0.076849
 C         2.338682        -1.165088         0.972035
 C         2.225389        -2.265875        -0.068006
 C         2.201604        -0.888271        -0.918663
 O         1.870749        -0.612412        -2.268595
 H        -0.579725         0.489991         1.021208
 H        -0.335910         0.470064        -0.767129
 H        -0.640699        -1.014544         0.077936
 H         1.673975         1.867352        -0.648511
 H         1.669511         1.828051         1.116794
 H         4.360530        -0.733008        -0.161572
 H         2.521646        -1.454538         2.073497
 H         3.052074        -2.984919        -0.159311
 H         1.355405        -3.013391        -0.204879
 H         1.850571        -1.401772        -2.779520
