19
Iteration:  2960charge 0 multiplicity 1
 C        -0.160347        -0.283397         0.296019
 C         1.301433        -0.042879         0.222608
 C         1.959291         1.437979         0.387374
 O         3.405364         1.021698         0.201309
 C         3.358859        -0.347358        -0.036525
 C         2.239635        -1.087974         0.955624
 C         2.063907        -2.142336        -0.150186
 C         2.147000        -0.781054        -0.967607
 O         1.998943        -0.862868        -2.354734
 H        -0.619327        -0.183199         1.289118
 H        -0.812218         0.384797        -0.424636
 H        -0.434099        -1.275575        -0.042797
 H         1.764510         1.993563        -0.532216
 H         1.897936         1.978388         1.217567
 H         4.383895        -0.715976        -0.146667
 H         2.321411        -1.091746         2.075675
 H         2.804223        -2.854074        -0.365022
 H         1.082164        -2.617284        -0.302846
 H         2.279462        -0.050782        -2.720988
