19
Iteration:  2156
 C        -0.136985        -0.142074         0.199710
 C         1.354105        -0.062646         0.207550
 C         1.953194         1.356518         0.225571
 O         3.341348         0.941196         0.282238
 C         3.329666        -0.413945        -0.090288
 C         2.365283        -1.117348         0.942156
 C         2.100226        -2.162852        -0.137958
 C         2.128609        -0.799896        -0.911352
 O         1.908775        -0.637261        -2.227459
 H        -0.549209         0.726368         0.899240
 H        -0.585416        -0.012771        -0.771736
 H        -0.545492        -0.978025         0.719831
 H         1.451317         2.004201        -0.600341
 H         1.797521         1.743085         1.224258
 H         4.392919        -0.802796        -0.351370
 H         2.538696        -1.258002         2.065957
 H         2.984585        -2.834096        -0.331742
 H         1.101217        -2.751644        -0.171546
 H         2.332859        -1.436814        -2.700048
