19
Iteration:   213
 C        -0.128436         0.128256         0.098480
 C         1.393480        -0.006548         0.133742
 C         2.168698         1.320771         0.293346
 O         3.613424         0.840978         0.263928
 C         3.428501        -0.558676        -0.020915
 C         2.282463        -1.019777         0.927507
 C         1.852272        -2.214999         0.029198
 C         2.041486        -0.914048        -0.929872
 O         1.694938        -0.635471        -2.289385
 H        -0.543036         0.789930         0.869719
 H        -0.409338         0.495828        -0.957313
 H        -0.676771        -0.854405         0.149502
 H         1.954937         2.018565        -0.442781
 H         1.960809         1.750538         1.251646
 H         4.429364        -1.102027        -0.319096
 H         2.192904        -1.121301         2.121574
 H         2.627338        -3.059753         0.092785
 H         0.836066        -2.754252         0.180590
 H         2.285207        -1.121401        -2.835604
