19
Iteration:  4108charge 0 multiplicity 1
 C        -0.163214        -0.355878         0.556846
 C         1.329256        -0.015353         0.167774
 C         1.903895         1.307820         0.344244
 O         3.317115         1.049150         0.157873
 C         3.310120        -0.416721        -0.011709
 C         2.299177        -1.100343         0.874578
 C         1.900812        -2.116600        -0.244406
 C         2.145947        -0.784864        -0.981143
 O         2.233581        -0.694263        -2.389146
 H        -0.633084        -0.934696        -0.287623
 H        -0.158625        -0.869726         1.498852
 H        -0.858269         0.406962         0.355171
 H         1.362120         2.204494        -0.158731
 H         1.902757         1.481233         1.419777
 H         4.441556        -0.510095        -0.112346
 H         2.257477        -1.306965         1.925013
 H         2.633956        -2.903801        -0.455145
 H         0.965568        -2.503103        -0.163559
 H         2.620791         0.191016        -2.725100
