19
Iteration:   539charge 0 multiplicity 1
 C        -0.076585         0.136333         0.163301
 C         1.407851         0.006050         0.241058
 C         2.075161         1.292219         0.503500
 O         3.483320         0.938615         0.071486
 C         3.342361        -0.489496        -0.089281
 C         2.276172        -1.080194         0.926956
 C         1.776906        -2.101048        -0.089552
 C         2.171245        -0.874283        -0.930938
 O         1.928730        -0.959397        -2.275662
 H        -0.479296         0.165350         1.173818
 H        -0.260019         1.107627        -0.410364
 H        -0.635168        -0.632441        -0.402826
 H         1.871805         2.166356        -0.107248
 H         2.100439         1.610377         1.493014
 H         4.357599        -0.957598        -0.232787
 H         2.347839        -1.139115         2.012814
 H         2.476033        -2.927805        -0.219050
 H         0.737885        -2.428192        -0.172819
 H         1.273245        -0.173161        -2.493105
