19
Iteration:  2078charge 0 multiplicity 1
 C        -0.263281        -0.269842         0.358941
 C         1.284279        -0.075946         0.274785
 C         1.996381         1.364657         0.330213
 O         3.366372         0.991461         0.054807
 C         3.343654        -0.402474        -0.072111
 C         2.321687        -1.020266         0.988945
 C         1.973093        -2.143140        -0.107676
 C         2.159558        -0.839537        -0.939651
 O         2.196193        -0.673449        -2.322929
 H        -0.782331        -0.289338         1.374662
 H        -0.704851         0.515898        -0.199775
 H        -0.543800        -1.080966        -0.273468
 H         1.629920         2.027671        -0.460822
 H         1.814268         1.878329         1.220645
 H         4.363009        -0.869547        -0.119385
 H         2.558095        -1.236942         1.971731
 H         2.739371        -2.938981        -0.371506
 H         0.979605        -2.620055        -0.151345
 H         1.227531        -0.682103        -2.625985
