19
Iteration:  1291
 C        -0.157561        -0.049984         0.286022
 C         1.340146        -0.022057         0.282552
 C         2.102633         1.377984         0.249833
 O         3.446838         0.922900         0.141502
 C         3.334488        -0.529468        -0.087451
 C         2.266097        -1.122222         0.980521
 C         1.843635        -2.127087        -0.099777
 C         2.141399        -0.829165        -0.934705
 O         2.019781        -0.677703        -2.265420
 H        -0.597100         0.335119         1.168781
 H        -0.666654         0.567624        -0.537435
 H        -0.509850        -0.972576        -0.028479
 H         1.954549         1.971130        -0.641369
 H         2.059545         1.923512         1.217861
 H         4.299697        -0.893255        -0.224945
 H         2.591050        -1.224056         2.006760
 H         2.590054        -2.919319        -0.467585
 H         0.801285        -2.496931         0.036921
 H         1.620279        -1.438930        -2.590467
