19
Iteration:  3559charge 0 multiplicity 1
 C        -0.182705        -0.290517         0.411194
 C         1.328426        -0.104635         0.248112
 C         1.912306         1.364387         0.320648
 O         3.383581         1.072772         0.077614
 C         3.335254        -0.408608        -0.072445
 C         2.190034        -1.106056         0.927136
 C         2.021575        -2.204549        -0.172575
 C         2.215306        -0.865257        -0.938551
 O         2.071065        -0.596619        -2.298417
 H        -0.508650         0.768118         0.673832
 H        -0.722544        -0.661594        -0.520930
 H        -0.319839        -1.076206         1.189983
 H         1.448459         1.980163        -0.415872
 H         1.747974         1.740372         1.264399
 H         4.323848        -0.736223        -0.186085
 H         2.212943        -1.248455         2.036796
 H         2.846081        -2.905051        -0.186354
 H         0.995864        -2.778995        -0.290999
 H         2.912227        -0.163335        -2.641211
