19
Iteration:  2957
 C        -0.159128        -0.248082         0.308041
 C         1.288601        -0.048502         0.186342
 C         1.953251         1.437595         0.374445
 O         3.399340         1.007304         0.213830
 C         3.353587        -0.347229        -0.058639
 C         2.257905        -1.067218         0.971997
 C         2.060210        -2.148655        -0.164539
 C         2.149097        -0.806034        -0.946409
 O         2.015646        -0.864470        -2.350276
 H        -0.621510        -0.131192         1.311662
 H        -0.773605         0.382373        -0.276300
 H        -0.421968        -1.305355        -0.037219
 H         1.731308         2.077840        -0.543622
 H         1.725342         2.088091         1.343785
 H         4.332238        -0.724158        -0.183667
 H         2.330408        -1.177966         1.980163
 H         2.837380        -2.950009        -0.422558
 H         1.170886        -2.706304        -0.277692
 H         2.262485         0.043561        -2.687059
