19
Iteration:  3968charge 0 multiplicity 1
 C        -0.199365        -0.234120         0.520174
 C         1.284866        -0.108896         0.162569
 C         1.908999         1.204928         0.456922
 O         3.317113         1.030510         0.181406
 C         3.331820        -0.404978         0.032742
 C         2.300209        -1.098337         0.908999
 C         2.114614        -2.188306        -0.369317
 C         2.131991        -0.776065        -1.018011
 O         2.120112        -0.553144        -2.413704
 H        -0.548516        -0.215015         1.601357
 H        -0.858370         0.528051         0.093716
 H        -0.544053        -1.192925         0.099248
 H         1.551353         1.944570        -0.108779
 H         1.676729         1.458989         1.514487
 H         4.320248        -0.867295        -0.179056
 H         2.369015        -1.526570         1.912093
 H         2.973908        -2.906196        -0.529306
 H         1.132221        -2.748986        -0.316273
 H         2.509553         0.312183        -2.630671
