19
Iteration:  2370
 C        -0.272739        -0.105329         0.310730
 C         1.315836        -0.079438         0.230250
 C         1.870919         1.231677         0.224155
 O         3.389499         0.957735         0.055618
 C         3.343740        -0.448345        -0.057195
 C         2.310112        -1.049361         1.015749
 C         2.129794        -2.184189        -0.102881
 C         2.087050        -0.851852        -0.860619
 O         2.067317        -0.613263        -2.280643
 H        -0.783641         0.690154         0.857893
 H        -0.679558        -0.051592        -0.783718
 H        -0.418686        -1.087492         0.923003
 H         1.604315         1.949038        -0.601894
 H         1.944528         1.773311         1.226646
 H         4.350075        -1.036062        -0.338873
 H         2.329018        -1.318916         2.057025
 H         2.970194        -2.805948        -0.552923
 H         1.213241        -2.774137        -0.000292
 H         2.795253         0.140693        -2.233286
