19
Iteration:  1543charge 0 multiplicity 1
 C        -0.198451        -0.037602         0.331005
 C         1.304977        -0.031124         0.241004
 C         1.998816         1.337906         0.384869
 O         3.405027         1.008145         0.098769
 C         3.352215        -0.462370        -0.069092
 C         2.263505        -1.127728         0.934334
 C         1.933452        -2.112436        -0.154273
 C         2.145773        -0.842708        -0.900293
 O         2.114162        -0.841720        -2.333970
 H        -0.622009         0.671400         1.063197
 H        -0.713113         0.012056        -0.600004
 H        -0.624866        -0.938439         0.719606
 H         1.634083         1.867345        -0.480979
 H         1.924063         1.712165         1.410493
 H         4.350406        -0.932591        -0.230011
 H         2.428847        -1.323886         2.026126
 H         2.657421        -2.870802        -0.526744
 H         0.897999        -2.400475         0.109093
 H         2.216235        -0.003146        -2.863412
