19
Iteration:  4089
 C        -0.174031        -0.276547         0.383030
 C         1.280750        -0.130965         0.257363
 C         1.893997         1.279385         0.481896
 O         3.336956         1.054169         0.168451
 C         3.320322        -0.378335        -0.090732
 C         2.310584        -1.057944         0.871625
 C         1.993136        -2.135995        -0.252752
 C         2.180356        -0.823916        -0.986770
 O         2.148320        -0.691421        -2.355178
 H        -0.826180        -1.121906         0.064885
 H        -0.346754        -0.424724         1.436011
 H        -0.713160         0.620006         0.029196
 H         1.537748         1.977495        -0.365953
 H         1.813404         1.880530         1.481744
 H         4.312315        -0.641178        -0.312454
 H         2.539944        -1.316250         1.997460
 H         2.758183        -2.877587        -0.367556
 H         1.004490        -2.679239        -0.272502
 H         2.549882         0.218404        -2.594910
