19
Iteration:  4226charge 0 multiplicity 1
 C        -0.189197        -0.369787         0.109811
 C         1.333321        -0.048132         0.184600
 C         1.980003         1.308429         0.469208
 O         3.432155         1.047635         0.220305
 C         3.401925        -0.371095        -0.086588
 C         2.322569        -1.032732         0.948304
 C         2.052714        -2.066740        -0.123516
 C         2.132041        -0.779852        -0.949017
 O         1.864386        -0.754492        -2.275192
 H        -0.812528         0.431706         0.130974
 H        -0.202320        -1.052050        -0.744454
 H        -0.473502        -0.891957         1.043594
 H         1.571286         2.017508        -0.211451
 H         1.902911         1.714584         1.507830
 H         4.438107        -0.843084        -0.268903
 H         2.431668        -1.177618         1.971849
 H         2.821617        -2.928575        -0.347808
 H         1.081381        -2.599064        -0.208020
 H         2.147142         0.109869        -2.549443
