19
Iteration:  4984charge 0 multiplicity 1
 C        -0.210116        -0.055326         0.436831
 C         1.264854        -0.102680         0.266282
 C         1.799392         1.244876         0.088687
 O         3.288169         1.037800        -0.135818
 C         3.306633        -0.360373        -0.015698
 C         2.259756        -0.997899         1.006260
 C         2.133184        -2.182785        -0.009141
 C         2.199154        -0.936702        -0.826050
 O         2.199485        -0.774326        -2.266435
 H        -0.691122        -0.424100         1.383236
 H        -0.550133         0.937177         0.273135
 H        -0.709264        -0.744207        -0.170987
 H         1.390685         1.750840        -0.725363
 H         1.732268         1.888698         0.961316
 H         4.361507        -0.674375         0.017474
 H         2.331554        -1.130923         2.018413
 H         3.054775        -2.899829        -0.029497
 H         1.288988        -2.902106        -0.054617
 H         3.005558        -0.179754        -2.534409
