19
Iteration:  3988
 C        -0.137151        -0.401318         0.304469
 C         1.344283        -0.092109         0.223998
 C         1.953700         1.298707         0.465919
 O         3.349682         0.984169         0.238867
 C         3.330356        -0.364296        -0.054723
 C         2.292345        -1.131910         0.836411
 C         1.999772        -2.111762        -0.278471
 C         2.190415        -0.748961        -0.961212
 O         2.017761        -0.586662        -2.325010
 H        -0.431125        -0.791873         1.390427
 H        -0.814225         0.484774         0.207031
 H        -0.643600        -1.232558        -0.226427
 H         1.610425         2.063261        -0.253260
 H         1.935234         1.828653         1.509787
 H         4.378507        -0.826007        -0.273849
 H         2.385958        -1.194529         1.890725
 H         2.868215        -2.772902        -0.436485
 H         1.047763        -2.474791        -0.324591
 H         2.154009         0.325451        -2.467487
