19
Iteration:  4580
 C        -0.102169        -0.367253         0.146460
 C         1.345403        -0.026044         0.169668
 C         1.923870         1.426989         0.230267
 O         3.396884         1.025408         0.148160
 C         3.350066        -0.360274        -0.028529
 C         2.374169        -0.930516         0.945628
 C         2.017085        -2.144173         0.038424
 C         2.153945        -0.860998        -0.872816
 O         1.872033        -0.789470        -2.252172
 H        -0.605259         0.645834         0.369654
 H        -0.487372        -0.856338        -0.791875
 H        -0.415558        -1.063684         1.007108
 H         1.798249         2.076956        -0.588633
 H         1.660166         1.923835         1.172058
 H         4.370441        -0.610154        -0.206980
 H         2.585373        -0.848194         2.075328
 H         2.770193        -2.774514        -0.335071
 H         0.998318        -2.459481         0.136929
 H         2.324197        -1.508401        -2.643750
