19
Iteration:    34
 C        -0.115537         0.113845         0.129958
 C         1.374599        -0.024053         0.246862
 C         2.151827         1.331105         0.172373
 O         3.507803         0.803517         0.065831
 C         3.360967        -0.614941         0.005792
 C         2.334174        -1.181883         1.082097
 C         1.831905        -2.147291        -0.082047
 C         2.044577        -0.896885        -0.823554
 O         1.894068        -0.540620        -2.203976
 H        -0.474114         1.003097         0.664932
 H        -0.113479         0.453372        -0.937776
 H        -0.845462        -0.726052         0.119323
 H         1.963906         2.061128        -0.505948
 H         2.127913         1.774229         1.161039
 H         4.365296        -1.045861        -0.110893
 H         2.345533        -1.195688         2.136336
 H         2.539311        -2.851455        -0.485370
 H         0.823456        -2.511128         0.039356
 H         1.107554        -0.982953        -2.564421
