19
Iteration:  2827
 C        -0.201538        -0.125441         0.154288
 C         1.282113        -0.077323         0.206510
 C         1.979772         1.188789         0.271911
 O         3.378645         1.028078         0.181829
 C         3.348402        -0.330268         0.040402
 C         2.393492        -1.059592         0.985710
 C         2.158685        -2.149536        -0.183843
 C         2.143908        -0.816443        -0.905623
 O         1.852500        -0.692311        -2.218491
 H        -0.576838         0.491845         1.006731
 H        -0.511292         0.275488        -0.858973
 H        -0.672450        -1.198459         0.256878
 H         1.624629         1.838546        -0.569330
 H         1.613025         1.654847         1.338157
 H         4.258791        -0.925115        -0.006960
 H         2.598860        -1.263272         1.980864
 H         2.924694        -2.913855        -0.526503
 H         1.237994        -2.661097        -0.153425
 H         2.594877        -1.076160        -2.629801
