19
Iteration:   308charge 0 multiplicity 1
 C        -0.142714         0.015034         0.415167
 C         1.362629         0.063997         0.101876
 C         2.235358         1.346613         0.072070
 O         3.566356         0.828862         0.051328
 C         3.270112        -0.580467         0.048607
 C         2.085342        -1.061801         0.948898
 C         1.727958        -2.175890        -0.105883
 C         2.081447        -0.866596        -0.855732
 O         2.096838        -0.595537        -2.173014
 H        -0.187737         0.418638         1.424318
 H        -0.879658         0.520066        -0.305718
 H        -0.545537        -0.938609         0.451484
 H         2.188348         2.035423        -0.883258
 H         2.172456         1.947086         1.067581
 H         4.239464        -1.244723        -0.100136
 H         2.132820        -1.267871         2.018614
 H         2.364091        -3.014991        -0.102036
 H         0.711533        -2.503059        -0.321900
 H         1.814213        -1.422248        -2.724816
