19
Iteration:  3152
 C        -0.218246        -0.063667         0.155592
 C         1.262963        -0.201674         0.189275
 C         1.944708         1.241314         0.290896
 O         3.330543         1.055687         0.155019
 C         3.337218        -0.330636        -0.087119
 C         2.410830        -1.080775         0.947080
 C         2.174860        -2.206026        -0.023061
 C         2.123482        -0.959452        -0.900549
 O         1.959057        -0.656305        -2.222651
 H        -0.639708         0.084411         1.255152
 H        -0.503676         0.744246        -0.516859
 H        -0.876679        -1.025981        -0.223193
 H         1.470870         2.001334        -0.530286
 H         1.755886         1.654275         1.278138
 H         4.322226        -0.737877        -0.167641
 H         2.455906        -1.131456         2.000824
 H         3.143484        -2.848718        -0.207879
 H         1.291306        -2.836068        -0.014147
 H         2.567238         0.062634        -2.577771
