19
Iteration:   888
 C        -0.191040        -0.020668         0.061138
 C         1.380353        -0.097873         0.167004
 C         2.100153         1.228924         0.248212
 O         3.536853         0.902726         0.158720
 C         3.418196        -0.499058         0.015777
 C         2.325123        -1.051047         1.002907
 C         1.895127        -2.183483        -0.091201
 C         2.170122        -0.930558        -0.856128
 O         1.751953        -0.571315        -2.201344
 H        -0.499176         0.836758         0.580261
 H        -0.368280        -0.079638        -1.150121
 H        -0.537248        -0.976221         0.520138
 H         1.891753         1.904526        -0.569386
 H         1.917635         1.902906         1.130224
 H         4.480374        -0.869338        -0.130992
 H         2.343484        -1.220902         2.135541
 H         2.579255        -3.063287        -0.136266
 H         0.805860        -2.385310        -0.020428
 H         1.644401         0.434354        -2.168774
