19
Iteration:  3599charge 0 multiplicity 1
 C        -0.186574        -0.114023         0.455724
 C         1.289162        -0.141471         0.245167
 C         1.815078         1.249436         0.239768
 O         3.284177         0.993917         0.166034
 C         3.326629        -0.434443        -0.092453
 C         2.314674        -1.170177         0.941418
 C         2.122332        -2.224378        -0.189867
 C         2.161913        -0.830108        -0.939353
 O         2.145226        -0.568454        -2.314435
 H        -0.627955         0.760904        -0.003865
 H        -0.791478        -0.823141         0.052590
 H        -0.451886         0.027553         1.532698
 H         1.440284         1.936046        -0.622197
 H         1.683978         2.037288         1.080652
 H         4.365181        -0.895081        -0.392616
 H         2.514811        -1.408017         1.968046
 H         3.045920        -2.774081        -0.423371
 H         1.194677        -2.754713        -0.210229
 H         2.689236         0.211627        -2.455365
