19
Iteration:  3597charge 0 multiplicity 1
 C        -0.185353        -0.115917         0.456784
 C         1.281302        -0.134387         0.245591
 C         1.792181         1.254576         0.229956
 O         3.284641         0.984806         0.164627
 C         3.339926        -0.446909        -0.100970
 C         2.329283        -1.180252         0.949271
 C         2.111972        -2.207676        -0.187215
 C         2.164844        -0.826102        -0.944204
 O         2.150590        -0.563928        -2.312248
 H        -0.617410         0.808091         0.081326
 H        -0.871703        -0.824730         0.001686
 H        -0.431962         0.030907         1.494289
 H         1.425631         1.896837        -0.579581
 H         1.687687         2.031622         1.087608
 H         4.362239        -0.899391        -0.405953
 H         2.501919        -1.420420         1.985336
 H         3.068158        -2.751031        -0.402833
 H         1.244047        -2.759293        -0.164099
 H         2.709603         0.177327        -2.450449
