19
Iteration:  3709
 C        -0.200441        -0.129489         0.288673
 C         1.346462        -0.177453         0.224232
 C         1.930275         1.240084         0.383552
 O         3.343555         1.088441         0.175782
 C         3.319874        -0.381880        -0.012824
 C         2.294656        -1.205465         0.918128
 C         2.204101        -2.303174        -0.229562
 C         2.152025        -0.838806        -0.916715
 O         1.927207        -0.537400        -2.325326
 H        -0.578303        -1.150248         0.098082
 H        -0.466847         0.346030         1.312846
 H        -0.448824         0.468293        -0.641852
 H         1.404245         1.903790        -0.349365
 H         1.766755         1.784770         1.398823
 H         4.315421        -0.768218        -0.169532
 H         2.326125        -1.286444         2.020634
 H         3.106949        -2.843499        -0.270259
 H         1.302132        -2.896886        -0.271132
 H         2.425496         0.328680        -2.525116
