19
Iteration:  3815
 C        -0.237870        -0.081501         0.309242
 C         1.273356        -0.081714         0.228423
 C         1.913176         1.245721         0.533412
 O         3.288799         1.003196         0.236653
 C         3.346037        -0.400243        -0.043042
 C         2.381982        -1.240112         0.893307
 C         2.202148        -2.244677        -0.306750
 C         2.175917        -0.790877        -0.956197
 O         1.970536        -0.580511        -2.398547
 H        -0.497878         0.652716         1.063731
 H        -0.811193         0.052361        -0.560021
 H        -0.667671        -0.989928         0.644699
 H         1.592866         2.071978        -0.270749
 H         1.765541         1.495340         1.578047
 H         4.435166        -0.747245        -0.182003
 H         2.603219        -1.474923         1.902469
 H         3.092671        -2.942129        -0.625854
 H         1.426875        -2.978458        -0.182886
 H         2.302077         0.367663        -2.602971
