19
Iteration:  4577charge 0 multiplicity 1
 C        -0.113942        -0.349123         0.147808
 C         1.353229        -0.014447         0.168222
 C         1.938306         1.405924         0.245883
 O         3.404371         1.030961         0.154928
 C         3.361690        -0.325084        -0.021828
 C         2.385866        -0.941184         0.939654
 C         2.027923        -2.139401         0.038470
 C         2.156602        -0.871634        -0.873701
 O         1.843486        -0.782367        -2.251178
 H        -0.764525         0.762769         0.213078
 H        -0.392177        -0.953395        -0.796322
 H        -0.444934        -1.164264         0.927662
 H         1.694123         2.054610        -0.691333
 H         1.662266         1.951047         1.140446
 H         4.317904        -0.736373        -0.187752
 H         2.541790        -0.885931         2.096811
 H         2.761124        -2.923199        -0.292920
 H         1.044766        -2.517672         0.122503
 H         2.349016        -1.588160        -2.644200
