19
Iteration:  3016
 C        -0.210366        -0.087243         0.199984
 C         1.328468        -0.177965         0.246410
 C         1.869620         1.222777         0.312257
 O         3.354650         1.042381         0.095846
 C         3.350199        -0.396412        -0.072649
 C         2.314130        -1.062169         0.996018
 C         2.182065        -2.231543        -0.025707
 C         2.115014        -0.915779        -0.928035
 O         1.957236        -0.594029        -2.273814
 H        -0.736008         0.500028         0.966101
 H        -0.320872         0.341348        -0.941680
 H        -0.563997        -1.090759         0.144120
 H         1.593527         1.962137        -0.511523
 H         1.709006         1.766353         1.198264
 H         4.424755        -0.787057        -0.139800
 H         2.708069        -1.367711         2.087242
 H         2.997045        -2.853195        -0.170333
 H         1.209454        -2.822675         0.071661
 H         2.645079         0.106052        -2.517150
