19
Iteration:  4293
 C        -0.268575        -0.092195         0.556170
 C         1.254214        -0.179362         0.215683
 C         1.893021         1.332785         0.222265
 O         3.304300         1.044874         0.114930
 C         3.289478        -0.418008        -0.014093
 C         2.307685        -1.126776         0.936847
 C         2.146945        -2.185481        -0.214750
 C         2.161551        -0.905504        -0.987800
 O         2.172009        -0.626741        -2.359820
 H        -0.408901         0.432084         1.420179
 H        -0.881108         0.082601        -0.338208
 H        -0.676527        -1.095141         0.799476
 H         1.467863         1.802183        -0.660410
 H         1.601882         1.923594         1.188748
 H         4.327770        -0.770222        -0.121321
 H         2.251563        -1.372911         2.022997
 H         3.108775        -2.861457        -0.446093
 H         1.325879        -2.881482        -0.088012
 H         2.902820         0.095632        -2.361869
