19
Iteration:  2751charge 0 multiplicity 1
 C        -0.231133        -0.306912         0.340237
 C         1.327122        -0.050496         0.245371
 C         2.002810         1.391968         0.345279
 O         3.380451         1.061635         0.082184
 C         3.282686        -0.346933        -0.045228
 C         2.246119        -1.063523         0.926053
 C         1.967103        -2.151767        -0.142368
 C         2.159858        -0.836353        -0.936644
 O         2.213522        -0.697075        -2.293417
 H        -0.536814        -0.159489         1.342968
 H        -0.886746         0.145892        -0.418135
 H        -0.185012        -1.416813         0.141743
 H         1.603071         1.934511        -0.541561
 H         1.868408         1.976660         1.406510
 H         4.219528        -0.921127        -0.200945
 H         2.441113        -1.108364         1.969801
 H         2.604916        -3.000138        -0.272324
 H         1.079034        -2.659379        -0.172629
 H         1.299333        -1.095149        -2.593210
