19
Iteration:  3721
 C        -0.203122        -0.186703         0.323745
 C         1.279833        -0.183514         0.248426
 C         1.932446         1.302252         0.333720
 O         3.322869         0.985153         0.177011
 C         3.324683        -0.371656        -0.031710
 C         2.296796        -1.201670         0.926324
 C         2.190617        -2.211529        -0.180162
 C         2.168142        -0.845094        -0.974889
 O         2.009571        -0.494273        -2.335370
 H        -0.647745        -1.095987         0.710923
 H        -0.578520         0.525331         1.133864
 H        -0.835531         0.164562        -0.533620
 H         1.614650         1.993895        -0.521987
 H         1.793933         1.714878         1.407404
 H         4.296930        -0.680697        -0.218274
 H         2.486781        -1.602536         1.960663
 H         2.977974        -2.792135        -0.451337
 H         1.295793        -2.876701        -0.174520
 H         2.455712         0.319661        -2.450532
