19
Iteration:  3654
 C        -0.140559        -0.364954         0.183053
 C         1.355941        -0.048667         0.223281
 C         1.966579         1.348005         0.492076
 O         3.433320         1.042871         0.305220
 C         3.342801        -0.357996        -0.086405
 C         2.339067        -1.010077         0.861808
 C         1.963544        -2.112006        -0.215566
 C         2.101225        -0.840079        -0.967703
 O         1.941077        -0.754966        -2.345738
 H        -0.309120        -0.621484        -0.841320
 H        -0.444992        -1.125664         0.900108
 H        -0.753861         0.448890         0.618254
 H         1.690130         2.124225        -0.255457
 H         2.045920         1.584891         1.629927
 H         4.407782        -0.776803        -0.169425
 H         2.474916        -1.164782         1.921911
 H         2.705451        -2.879873        -0.393308
 H         1.090692        -2.656646        -0.028803
 H         2.011549         0.239931        -2.543931
