19
Iteration:   340charge 0 multiplicity 1
 C        -0.158580         0.178250         0.263335
 C         1.342652        -0.010230         0.259143
 C         2.218595         1.218235         0.150295
 O         3.498969         0.794415         0.157103
 C         3.323339        -0.527144         0.004959
 C         2.205254        -1.059579         1.000331
 C         1.877831        -2.150659        -0.054400
 C         2.062675        -0.866034        -0.871298
 O         1.993524        -0.653612        -2.337467
 H        -0.478868         0.373645         1.292500
 H        -0.390431         1.196370        -0.204068
 H        -0.738763        -0.596752        -0.116600
 H         1.981120         1.746479        -0.868004
 H         2.012758         1.964156         0.975897
 H         4.201123        -1.199698        -0.223946
 H         2.306711        -1.231810         2.057880
 H         2.591442        -2.967985        -0.068873
 H         0.845197        -2.473956        -0.194580
 H         1.390816        -1.311998        -2.712303
