19
Iteration:  2101
 C        -0.106337        -0.174248         0.240840
 C         1.351095        -0.039887         0.066264
 C         1.989693         1.298696         0.414560
 O         3.377490         1.013807         0.193883
 C         3.313814        -0.388810        -0.034409
 C         2.292368        -0.996663         0.915125
 C         2.056224        -2.193275        -0.024432
 C         2.098410        -0.846540        -0.978251
 O         2.016250        -0.680250        -2.315408
 H        -0.343107        -0.063294         1.369426
 H        -0.746554         0.432950        -0.343509
 H        -0.338473        -1.112919        -0.164180
 H         1.472702         2.004252        -0.201719
 H         1.702652         1.650172         1.373180
 H         4.295090        -0.803031        -0.470369
 H         2.359834        -1.111920         2.013578
 H         2.931852        -2.907866        -0.159394
 H         1.095583        -2.831497         0.016190
 H         1.387393        -1.345602        -2.610076
