19
Iteration:  4434
 C        -0.236997        -0.202965         0.386139
 C         1.335670        -0.073562         0.196502
 C         1.889134         1.365462         0.236632
 O         3.317611         1.034809         0.105076
 C         3.323834        -0.390121        -0.028904
 C         2.313338        -1.031082         0.931196
 C         2.096330        -2.182584        -0.096413
 C         2.177543        -0.859974        -0.855781
 O         2.146821        -0.809196        -2.355401
 H        -0.609485        -1.132449        -0.115502
 H        -0.514824        -0.088388         1.426640
 H        -0.833585         0.677337         0.128502
 H         1.587869         2.016971        -0.602045
 H         1.815264         1.956271         1.123602
 H         4.266298        -0.808502        -0.291867
 H         2.459458        -1.165768         1.985037
 H         2.757869        -2.984321        -0.250416
 H         1.124818        -2.551662         0.034309
 H         1.790080         0.111515        -2.592486
