19
Iteration:  3523charge 0 multiplicity 1
 C        -0.233704        -0.319640         0.147428
 C         1.368946        -0.103414         0.189787
 C         1.938607         1.341331         0.402980
 O         3.454295         1.048828         0.214450
 C         3.352765        -0.380251        -0.076374
 C         2.389026        -0.987758         0.962610
 C         2.027465        -2.123947        -0.131453
 C         2.120097        -0.821941        -0.923830
 O         1.917915        -0.765103        -2.289675
 H        -0.755861         0.097726         1.048121
 H        -0.675895         0.042732        -0.714370
 H        -0.652851        -1.387154         0.352084
 H         1.699057         2.174359        -0.393110
 H         1.734319         1.642130         1.413193
 H         4.434968        -0.836925        -0.227958
 H         2.566770        -0.983668         2.016368
 H         2.867619        -2.882357        -0.312219
 H         1.029811        -2.629337        -0.126248
 H         2.292875         0.118844        -2.627474
