19
Iteration:   579charge 0 multiplicity 1
 C        -0.148602         0.088387         0.244803
 C         1.317853         0.015200         0.083013
 C         2.154349         1.321436         0.249949
 O         3.542803         0.813467         0.128347
 C         3.321504        -0.568970        -0.007520
 C         2.205283        -1.027694         0.966135
 C         1.993835        -2.166916        -0.069099
 C         2.042658        -0.864446        -0.860783
 O         1.871981        -0.737712        -2.237482
 H        -0.492465         0.293008         1.268200
 H        -0.509728         0.971559        -0.373547
 H        -0.655155        -0.777290        -0.040563
 H         1.770143         1.979569        -0.525310
 H         1.910329         1.710186         1.316771
 H         4.259954        -1.175633        -0.375936
 H         2.303617        -0.973229         2.101465
 H         2.801214        -2.856267        -0.415424
 H         1.049397        -2.829463         0.069711
 H         2.337169         0.019840        -2.479927
