19
Iteration:  2561
 C        -0.174417        -0.162132         0.377072
 C         1.358903        -0.111607         0.121498
 C         1.866763         1.324337         0.270810
 O         3.330432         1.008958         0.183617
 C         3.417832        -0.379898         0.000791
 C         2.280914        -1.104039         0.961933
 C         2.019133        -2.148985        -0.132483
 C         2.173890        -0.805237        -0.928719
 O         2.049587        -0.697601        -2.378306
 H        -0.336891         0.403635         1.363060
 H        -0.769766         0.438647        -0.240644
 H        -0.627796        -1.095403         0.461812
 H         1.528714         1.946008        -0.520536
 H         1.528358         1.862076         1.188129
 H         4.384837        -0.754201         0.024718
 H         2.472179        -1.263864         2.013519
 H         2.810250        -2.845382        -0.243564
 H         1.052153        -2.585799        -0.099195
 H         2.615347        -1.284024        -2.811277
