19
Iteration:  4720
 C        -0.239506        -0.247284         0.068153
 C         1.317871        -0.031986         0.220967
 C         1.959076         1.392524         0.311115
 O         3.407157         1.067926         0.014501
 C         3.426449        -0.333303         0.000758
 C         2.369384        -0.910273         0.996934
 C         2.083161        -2.120110         0.119761
 C         2.163309        -0.924739        -0.933558
 O         1.924209        -0.978757        -2.264625
 H        -0.338528        -1.145607         0.680909
 H        -0.752460         0.575974         0.562417
 H        -0.710082        -0.429678        -0.883754
 H         1.590224         2.031167        -0.575977
 H         1.747280         1.859888         1.276415
 H         4.382454        -0.681633        -0.041726
 H         2.365967        -1.002932         2.147757
 H         2.904719        -2.750663        -0.056705
 H         1.115081        -2.479149         0.144043
 H         1.495779        -0.159646        -2.586664
