19
Iteration:  4392charge 0 multiplicity 1
 C        -0.232317        -0.163098         0.106403
 C         1.325379        -0.094815         0.213811
 C         1.981898         1.299750         0.347412
 O         3.315425         1.074559         0.166271
 C         3.400733        -0.375120        -0.007993
 C         2.379716        -1.049811         0.982393
 C         2.183256        -2.135045        -0.103430
 C         2.228742        -0.911493        -0.955706
 O         1.826490        -0.810622        -2.247860
 H        -0.584141        -1.077407         0.522747
 H        -0.600079         0.788207         0.684412
 H        -0.790961        -0.054862        -0.891859
 H         1.574435         1.989772        -0.407145
 H         1.684228         1.862701         1.369862
 H         4.406624        -0.673112        -0.020587
 H         2.572280        -1.297687         2.110265
 H         3.125710        -2.828458        -0.273105
 H         1.240645        -2.751347        -0.070811
 H         1.942716         0.117926        -2.634288
