19
Iteration:  3399charge 0 multiplicity 1
 C        -0.165278        -0.256731         0.390483
 C         1.304564        -0.087596         0.266346
 C         1.949024         1.330130         0.313175
 O         3.313878         1.039165         0.047496
 C         3.310086        -0.381275        -0.024746
 C         2.289947        -1.041003         0.958840
 C         1.999145        -2.139789        -0.139067
 C         2.167428        -0.844321        -0.966643
 O         2.113504        -0.714510        -2.352116
 H        -0.466240        -0.801921         1.247411
 H        -0.842535         0.678409         0.519014
 H        -0.543011        -0.793871        -0.436997
 H         1.501756         1.996969        -0.482311
 H         1.856251         1.792236         1.229743
 H         4.316541        -0.665721         0.113363
 H         2.217850        -1.158348         2.085659
 H         2.810741        -2.916303        -0.216220
 H         1.027192        -2.612854        -0.059501
 H         3.076856        -0.514488        -2.638300
