19
Iteration:  3791charge 0 multiplicity 1
 C        -0.196160        -0.276686         0.470539
 C         1.281819        -0.129960         0.207050
 C         1.945419         1.217065         0.486289
 O         3.370795         0.993891         0.221750
 C         3.288085        -0.342749        -0.106201
 C         2.276699        -1.072523         0.876974
 C         2.057322        -2.098960        -0.350398
 C         2.129355        -0.794440        -0.967635
 O         2.124665        -0.626948        -2.368553
 H        -0.527859         0.108001         1.454461
 H        -0.725947         0.304772        -0.250200
 H        -0.646405        -1.214292         0.261039
 H         1.606551         2.023495        -0.348293
 H         1.765285         1.447782         1.564545
 H         4.325164        -0.877767        -0.165119
 H         2.364306        -1.198255         1.954513
 H         2.843489        -2.906210        -0.564405
 H         1.146997        -2.643697        -0.459724
 H         2.585638         0.214550        -2.424054
