19
Iteration:  3851charge 0 multiplicity 1
 C        -0.205149        -0.263010         0.092963
 C         1.377472        -0.142338         0.220085
 C         1.975866         1.211928         0.501955
 O         3.393604         1.006562         0.293481
 C         3.411560        -0.326129        -0.128613
 C         2.351776        -1.255382         0.897601
 C         2.104814        -2.180727        -0.269309
 C         2.189123        -0.721596        -0.867341
 O         1.809824        -0.539470        -2.232324
 H        -0.655419         0.675376         0.345276
 H        -0.483502        -0.294027        -0.994859
 H        -0.444068        -1.086826         0.846915
 H         1.548263         1.916012        -0.306971
 H         1.708739         1.738524         1.387490
 H         4.343575        -0.713046        -0.199025
 H         2.485277        -1.528964         1.994247
 H         2.951932        -2.738528        -0.579989
 H         1.015799        -2.618132        -0.279306
 H         1.862575         0.451255        -2.474931
