19
Iteration:   709
 C        -0.128099         0.001155         0.108661
 C         1.347107        -0.015071         0.297582
 C         2.136320         1.331957         0.357861
 O         3.552052         0.930941         0.164077
 C         3.351072        -0.476670        -0.059153
 C         2.340394        -1.162768         0.994443
 C         1.901073        -2.135296        -0.092410
 C         2.047578        -0.793524        -0.871514
 O         1.856890        -0.781966        -2.312788
 H        -0.631362         0.734167         0.830157
 H        -0.434640         0.432219        -0.902852
 H        -0.416632        -1.065889         0.018842
 H         1.892071         2.005559        -0.495074
 H         1.879304         1.818310         1.351936
 H         4.389727        -0.922929        -0.305690
 H         2.422844        -1.417873         2.089204
 H         2.528432        -3.004100        -0.394913
 H         0.868287        -2.619377         0.100953
 H         1.075522        -0.197436        -2.655760
