19
Iteration:   239charge 0 multiplicity 1
 C        -0.107008         0.221469         0.169804
 C         1.348452         0.011113         0.167761
 C         2.212973         1.279491         0.359755
 O         3.552908         0.841301         0.090886
 C         3.307242        -0.542044         0.096848
 C         2.153621        -1.069566         0.955305
 C         1.953249        -2.135725        -0.203118
 C         2.121840        -0.824776        -0.877446
 O         1.758119        -0.786550        -2.260996
 H        -0.277350         1.099186         0.800102
 H        -0.502231         0.309800        -0.778051
 H        -0.715366        -0.618622         0.624079
 H         1.859832         2.179958        -0.294364
 H         2.108600         1.458998         1.446471
 H         4.148405        -1.091981         0.118101
 H         2.414610        -1.250977         1.970703
 H         2.769883        -2.904514        -0.163207
 H         1.052310        -2.744037        -0.242721
 H         2.329588        -1.445727        -2.711506
