19
Iteration:  1109charge 0 multiplicity 1
 C        -0.184912         0.147657         0.322405
 C         1.360914        -0.005566         0.129464
 C         2.064390         1.285325         0.385620
 O         3.475980         0.926871         0.258379
 C         3.407593        -0.496147         0.031152
 C         2.310069        -1.122821         0.904341
 C         1.899265        -2.180251        -0.218686
 C         2.146848        -0.912584        -1.008328
 O         1.918721        -0.690457        -2.322726
 H        -0.530383         0.507987        -0.647934
 H        -0.567506        -0.850687         0.469278
 H        -0.490315         0.906346         1.127208
 H         1.694533         2.029571        -0.279520
 H         1.770450         1.519657         1.419576
 H         4.328428        -0.957784        -0.215099
 H         2.353306        -1.303723         1.978816
 H         2.567000        -3.001405        -0.315702
 H         0.857742        -2.477999        -0.158065
 H         1.712401        -1.590096        -2.822786
