19
Iteration:   652charge 0 multiplicity 1
 C        -0.188399         0.046947         0.456574
 C         1.281832         0.012302         0.138870
 C         2.148939         1.347355         0.283955
 O         3.513624         0.849475         0.069524
 C         3.301725        -0.563078        -0.005768
 C         2.149135        -1.022027         0.956012
 C         1.946074        -2.224438        -0.071281
 C         2.072975        -0.900671        -0.996606
 O         2.094088        -0.595134        -2.386321
 H        -0.428197         0.934396         1.141455
 H        -0.863604        -0.012693        -0.376590
 H        -0.447759        -0.798068         1.226957
 H         1.924371         2.171608        -0.450656
 H         1.892851         1.723226         1.288219
 H         4.159914        -1.214249         0.008415
 H         2.017969        -1.041300         2.084142
 H         2.815732        -2.897183        -0.112650
 H         0.978738        -2.752689         0.009047
 H         1.742607        -1.386674        -2.826705
