19
Iteration:  1789charge 0 multiplicity 1
 C        -0.178832        -0.107168         0.114403
 C         1.335738        -0.050002         0.154218
 C         1.983462         1.292729         0.302281
 O         3.414084         0.963765         0.185717
 C         3.386392        -0.398516        -0.001802
 C         2.375442        -1.062301         0.978521
 C         2.012635        -2.246130        -0.119315
 C         2.210945        -0.875974        -0.873805
 O         1.857491        -0.588752        -2.217900
 H        -0.677896         0.478716         0.804364
 H        -0.620577         0.374431        -0.825838
 H        -0.733849        -1.098993         0.308429
 H         1.718757         1.932952        -0.612278
 H         1.873717         1.806072         1.302244
 H         4.411238        -0.738110        -0.145307
 H         2.479164        -1.185100         2.124966
 H         2.859743        -3.025010        -0.186227
 H         0.950564        -2.693677        -0.057467
 H         1.940078        -1.327447        -2.769351
