19
Iteration:   298charge 0 multiplicity 1
 C        -0.116886         0.019861         0.407910
 C         1.344168         0.004217         0.120620
 C         2.218054         1.298103         0.133660
 O         3.522272         0.775492         0.088544
 C         3.307275        -0.566490        -0.025048
 C         2.131099        -1.011310         1.014409
 C         1.665485        -2.121913        -0.059909
 C         2.099396        -0.897432        -0.914080
 O         2.134278        -0.575455        -2.276896
 H        -0.278559         0.574866         1.339811
 H        -0.815293         0.541361        -0.341939
 H        -0.382628        -0.965982         0.636827
 H         1.936238         1.975618        -0.755268
 H         2.105139         1.985363         1.071419
 H         4.379851        -1.025209        -0.293232
 H         1.958830        -1.047500         2.123839
 H         2.286054        -2.960707        -0.167892
 H         0.620872        -2.370214         0.125942
 H         1.965838        -1.460607        -2.783443
