19
Iteration:   968
 C        -0.108453         0.061814         0.553966
 C         1.343079         0.025093         0.161494
 C         1.982456         1.309036         0.405298
 O         3.391415         0.919293         0.180184
 C         3.314224        -0.519074        -0.076339
 C         2.196463        -1.098701         0.888392
 C         1.793537        -2.127228        -0.218278
 C         2.146228        -0.859174        -1.006823
 O         2.178548        -0.842382        -2.444494
 H        -0.693410         0.543567        -0.266296
 H        -0.535295        -0.880579         0.706532
 H        -0.224563         0.632401         1.566831
 H         1.717355         2.138910        -0.214359
 H         1.851750         1.495344         1.509125
 H         4.360737        -0.772127        -0.043496
 H         2.503511        -1.278543         1.948117
 H         2.398887        -3.003087        -0.382230
 H         0.719477        -2.352611        -0.265660
 H         2.826585        -0.116989        -2.756057
