19
Iteration:  3426charge 0 multiplicity 1
 C        -0.174035        -0.316546         0.391834
 C         1.305049        -0.042473         0.117594
 C         1.929152         1.339589         0.282704
 O         3.363901         1.069899         0.089766
 C         3.377871        -0.401088        -0.054714
 C         2.333636        -1.066697         0.973667
 C         1.887066        -2.074684        -0.136949
 C         2.170325        -0.803308        -0.920989
 O         2.121473        -0.781209        -2.282037
 H        -0.182124        -1.013842         1.335456
 H        -0.881722         0.457991         0.467660
 H        -0.827901        -1.029059        -0.298097
 H         1.574344         1.978560        -0.477421
 H         1.739063         1.753554         1.334416
 H         4.506364        -0.701260         0.038140
 H         2.308693        -1.086380         2.039013
 H         2.552939        -2.939607        -0.362512
 H         0.840049        -2.516378        -0.241992
 H         2.713233         0.011539        -2.525475
