19
Iteration:  2711
 C        -0.265106        -0.101272         0.467538
 C         1.217142        -0.105903         0.106224
 C         1.874834         1.249905         0.343458
 O         3.322126         1.070823         0.098613
 C         3.338985        -0.384135        -0.037922
 C         2.331064        -1.080139         0.906798
 C         2.080281        -2.230952        -0.107929
 C         2.228203        -0.883925        -0.987562
 O         2.269350        -0.688190        -2.332151
 H        -0.320148         0.233386         1.529187
 H        -0.949065         0.605655        -0.095985
 H        -0.871009        -0.955478         0.441926
 H         1.528831         1.799930        -0.528295
 H         1.698086         1.766969         1.227398
 H         4.334704        -0.720406        -0.053795
 H         2.372050        -1.048191         2.003587
 H         2.795320        -3.082698        -0.245542
 H         0.956327        -2.589399        -0.141747
 H         1.395590        -0.545616        -2.618856
