19
Iteration:  1924
 C        -0.131860        -0.124676         0.162449
 C         1.353826        -0.067639         0.188647
 C         1.970557         1.303720         0.280429
 O         3.370991         0.938973         0.132319
 C         3.309986        -0.424213        -0.029688
 C         2.234591        -1.099302         0.999919
 C         2.147138        -2.167272        -0.087559
 C         2.142312        -0.887658        -0.867815
 O         1.868407        -0.619646        -2.223110
 H        -0.430642         0.532831         1.069791
 H        -0.415175         0.335238        -0.772275
 H        -0.429366        -1.188193         0.197609
 H         1.570440         1.930047        -0.568018
 H         1.904939         1.919776         1.277342
 H         4.295796        -0.862384        -0.061878
 H         2.408661        -1.093859         2.015174
 H         3.061641        -2.830075        -0.453791
 H         1.274106        -2.823708        -0.238100
 H         2.653725        -0.277424        -2.686876
