19
Iteration:  3148charge 0 multiplicity 1
 C        -0.276456        -0.061819         0.180293
 C         1.282153        -0.190238         0.170932
 C         1.922267         1.237126         0.307403
 O         3.294417         1.058320         0.141707
 C         3.359996        -0.365290        -0.058237
 C         2.412658        -1.078851         0.936365
 C         2.201602        -2.223128        -0.033465
 C         2.146381        -0.923434        -0.909377
 O         1.958792        -0.676014        -2.234213
 H        -0.572988         0.183192         1.166987
 H        -0.476950         0.833667        -0.496025
 H        -0.822178        -0.881528        -0.215209
 H         1.625697         1.844563        -0.492812
 H         1.877114         1.628104         1.315694
 H         4.374311        -0.764170        -0.132830
 H         2.519124        -0.987161         2.112936
 H         3.039053        -2.795835        -0.278324
 H         1.305514        -2.798314        -0.047693
 H         2.543442         0.031558        -2.501293
