19
Iteration:  2745charge 0 multiplicity 1
 C        -0.173523        -0.327764         0.368719
 C         1.318369        -0.023741         0.284411
 C         1.971264         1.382933         0.384111
 O         3.382149         1.085892         0.076722
 C         3.253237        -0.397336        -0.094823
 C         2.240735        -1.014993         0.908835
 C         1.956915        -2.182142        -0.156631
 C         2.120029        -0.840668        -0.948000
 O         2.254492        -0.724035        -2.280770
 H        -0.546639        -0.065105         1.418814
 H        -0.679207         0.310424        -0.389017
 H        -0.228108        -1.367986         0.142704
 H         1.577262         1.887499        -0.507174
 H         1.855450         1.998034         1.216968
 H         4.225566        -0.855491        -0.193615
 H         2.214364        -1.106040         2.032116
 H         2.808148        -2.927407        -0.318172
 H         0.937270        -2.771250        -0.195502
 H         1.470242        -0.890126        -2.824833
