19
Iteration:  1666charge 0 multiplicity 1
 C        -0.289224        -0.059377         0.454877
 C         1.269751        -0.051687         0.102329
 C         2.011802         1.272926         0.331105
 O         3.409841         0.977036         0.121500
 C         3.313872        -0.439476        -0.018219
 C         2.255388        -1.009072         0.933608
 C         1.989513        -2.150395        -0.142947
 C         2.159319        -0.836983        -0.970527
 O         2.232554        -0.788564        -2.330381
 H        -0.460235         0.024793         1.451228
 H        -0.804511         0.850121         0.064015
 H        -0.959697        -0.781620         0.035766
 H         1.769858         2.128633        -0.311038
 H         1.788073         1.635883         1.314801
 H         4.281419        -0.880718        -0.417332
 H         2.410996        -1.257708         1.949533
 H         2.826144        -2.884957        -0.344575
 H         1.049080        -2.715215         0.082247
 H         1.363125        -0.699354        -2.693631
