19
Iteration:  1607
 C        -0.264658        -0.168613         0.132422
 C         1.327632        -0.032923         0.172321
 C         2.124777         1.309162         0.200633
 O         3.464650         0.943623         0.148090
 C         3.398696        -0.504586         0.040862
 C         2.250842        -0.991233         1.024198
 C         2.066417        -2.167909        -0.110167
 C         2.165559        -0.913531        -0.888792
 O         1.833342        -0.505074        -2.188204
 H        -0.834942        -0.460761         1.196855
 H        -0.689021         0.700173        -0.353596
 H        -0.451444        -1.114617        -0.408590
 H         1.918586         1.813555        -0.862153
 H         1.865742         1.836006         1.184188
 H         4.375330        -1.005003        -0.054824
 H         2.459687        -1.073048         2.136321
 H         2.856854        -2.816207        -0.458802
 H         1.134763        -2.668479         0.153938
 H         1.819507        -1.430931        -2.666206
