19
Iteration:  4118
 C        -0.166033        -0.362209         0.520961
 C         1.256269        -0.046670         0.171818
 C         1.893476         1.333496         0.379847
 O         3.312274         1.006149         0.124854
 C         3.351499        -0.434899         0.010889
 C         2.263819        -1.028170         0.900966
 C         1.893290        -2.075865        -0.276892
 C         2.210355        -0.797984        -1.016973
 O         2.225118        -0.685253        -2.378579
 H        -0.716030        -1.077285        -0.106265
 H        -0.177297        -1.017212         1.448393
 H        -0.718735         0.505282         0.931037
 H         1.571655         2.138500        -0.345445
 H         1.762345         1.709906         1.364905
 H         4.475095        -0.796224        -0.087182
 H         2.403071        -1.270585         1.901084
 H         2.776940        -2.776674        -0.350627
 H         1.001333        -2.636792        -0.321441
 H         2.644910         0.186186        -2.596257
