19
Iteration:  1833charge 0 multiplicity 1
 C        -0.284250        -0.049874         0.382213
 C         1.258078        -0.055851         0.232503
 C         1.992066         1.356236         0.396642
 O         3.369524         1.017596         0.086196
 C         3.364083        -0.435343        -0.077150
 C         2.232929        -1.076686         0.885893
 C         2.037965        -2.134823        -0.141661
 C         2.197091        -0.910734        -0.971526
 O         2.216817        -0.774552        -2.304754
 H        -0.718132         0.076673         1.334346
 H        -0.917579         0.658700        -0.282146
 H        -0.691665        -1.150685         0.119586
 H         1.640138         2.190309        -0.292472
 H         1.942658         1.708801         1.478291
 H         4.396208        -0.835542        -0.121669
 H         2.370981        -1.142872         2.044666
 H         2.767256        -2.989675        -0.420911
 H         0.951038        -2.524985        -0.190815
 H         1.369971        -1.043778        -2.583108
