19
Iteration:   768
 C        -0.212341        -0.029888         0.409202
 C         1.344199        -0.029687         0.314965
 C         2.098323         1.302421         0.193577
 O         3.460122         0.889030         0.063279
 C         3.336172        -0.538559        -0.003191
 C         2.269688        -1.053616         0.990013
 C         1.823918        -2.159075        -0.168749
 C         2.124343        -0.829435        -0.899755
 O         2.036147        -0.715883        -2.338703
 H        -0.607923        -0.328024         1.322774
 H        -0.564716         0.977056         0.150067
 H        -0.658390        -0.644348        -0.368205
 H         1.812368         1.815537        -0.760490
 H         1.930396         2.116017         1.000357
 H         4.353835        -0.901126         0.029781
 H         2.415811        -1.247047         2.048447
 H         2.577617        -2.946023        -0.310782
 H         0.801881        -2.431306        -0.074925
 H         2.642496         0.012332        -2.587546
