19
Iteration:  2720
 C        -0.270203        -0.131939         0.468290
 C         1.262435        -0.094377         0.144638
 C         1.897695         1.267090         0.333202
 O         3.276316         1.000252         0.077393
 C         3.258610        -0.397958        -0.032248
 C         2.377242        -1.070806         0.945324
 C         2.032985        -2.149961        -0.103355
 C         2.203573        -0.816973        -0.971632
 O         2.304701        -0.715770        -2.363611
 H        -0.344883         0.104475         1.468216
 H        -0.837769         0.591158        -0.131331
 H        -0.525297        -1.164382         0.348004
 H         1.589587         1.974079        -0.383519
 H         1.704108         1.790456         1.218464
 H         4.260277        -0.801365        -0.155190
 H         2.442114        -1.186033         2.006092
 H         2.814428        -2.866845        -0.293359
 H         1.006599        -2.557792        -0.029349
 H         1.510717        -0.547726        -2.809434
