19
Iteration:   858charge 0 multiplicity 1
 C        -0.129704         0.012848         0.237354
 C         1.369164         0.031300         0.271726
 C         2.087794         1.324289         0.284336
 O         3.480076         0.903285         0.156758
 C         3.310582        -0.485602        -0.034670
 C         2.321998        -1.102040         1.004712
 C         1.857789        -2.165438        -0.168950
 C         2.008478        -0.850698        -0.883812
 O         1.998708        -0.772342        -2.304363
 H        -0.635183         0.296485         1.150548
 H        -0.337872         0.566007        -0.623143
 H        -0.421770        -1.101913         0.130935
 H         1.835018         1.865142        -0.686691
 H         1.888039         2.046553         1.158263
 H         4.285057        -0.993849        -0.376684
 H         2.485973        -1.482295         2.110355
 H         2.606197        -2.923950        -0.348844
 H         0.845894        -2.595007         0.002851
 H         1.931486         0.194439        -2.603143
