19
Iteration:  2359
 C        -0.190028        -0.102202         0.275659
 C         1.282625        -0.123546         0.228983
 C         1.974731         1.250046         0.269235
 O         3.340189         0.917787        -0.018092
 C         3.295278        -0.441371        -0.025201
 C         2.280979        -1.093468         1.008387
 C         2.129469        -2.154283        -0.069076
 C         2.120724        -0.868795        -0.892071
 O         2.033326        -0.555452        -2.231519
 H        -0.617377         0.618839         0.947896
 H        -0.688296        -0.099273        -0.775810
 H        -0.586880        -1.148710         0.609007
 H         1.562118         1.839369        -0.608739
 H         1.858571         1.870742         1.221236
 H         4.378447        -0.836121        -0.199672
 H         2.319481        -1.111126         2.075646
 H         3.114243        -2.669752        -0.015554
 H         1.330586        -2.858097        -0.223671
 H         2.676486         0.147087        -2.512202
