19
Iteration:  2930charge 0 multiplicity 1
 C        -0.197634        -0.054157         0.441413
 C         1.266717        -0.192008         0.111304
 C         1.890842         1.206821         0.277910
 O         3.300704         1.021439         0.194762
 C         3.388618        -0.363878        -0.003151
 C         2.306715        -1.091623         0.889739
 C         2.120864        -2.170882        -0.102039
 C         2.139207        -0.819927        -0.981815
 O         2.136222        -0.752646        -2.374320
 H        -0.389582         0.243183         1.461942
 H        -0.656014         0.832451        -0.116871
 H        -0.778622        -0.909215         0.259125
 H         1.520886         1.836064        -0.541021
 H         1.596638         1.841845         1.272261
 H         4.467049        -0.730370        -0.011743
 H         2.394632        -0.965955         2.065659
 H         2.814990        -2.972521        -0.263238
 H         1.095287        -2.715153        -0.115960
 H         2.018742         0.205901        -2.666981
