19
Iteration:   710charge 0 multiplicity 1
 C        -0.138724        -0.004688         0.108745
 C         1.353881        -0.020122         0.293295
 C         2.133193         1.332889         0.353034
 O         3.562424         0.928320         0.163922
 C         3.342459        -0.486022        -0.056553
 C         2.341799        -1.157304         0.999767
 C         1.906380        -2.130025        -0.089039
 C         2.051699        -0.794847        -0.873149
 O         1.850433        -0.775108        -2.318038
 H        -0.641588         0.679929         0.828475
 H        -0.440653         0.453202        -0.910585
 H        -0.412239        -1.022390         0.019538
 H         1.871267         1.998002        -0.498799
 H         1.888262         1.828502         1.375741
 H         4.374510        -0.910415        -0.268201
 H         2.408169        -1.410427         2.059172
 H         2.535359        -3.011180        -0.370577
 H         0.885522        -2.599873         0.113786
 H         1.099515        -0.191977        -2.633481
