19
Iteration:  4570
 C        -0.168122        -0.296229         0.144126
 C         1.362970        -0.020989         0.168521
 C         1.970846         1.356971         0.232942
 O         3.403442         1.078177         0.167346
 C         3.395962        -0.310784        -0.021676
 C         2.397230        -0.967439         0.969120
 C         2.068780        -2.129252         0.014395
 C         2.150684        -0.865935        -0.886887
 O         1.803470        -0.785315        -2.246450
 H        -0.877145         0.402312        -0.069406
 H        -0.196595        -0.861025        -0.788364
 H        -0.491944        -1.032968         0.874525
 H         1.598553         1.854590        -0.610239
 H         1.763975         1.968590         1.127771
 H         4.325889        -0.871530        -0.124906
 H         2.435744        -1.031369         2.074223
 H         2.704039        -2.997607        -0.019929
 H         1.081382        -2.618179         0.113469
 H         2.257046        -1.531474        -2.675742
