19
Iteration:  2136
 C        -0.189302        -0.094313         0.217714
 C         1.324439        -0.102613         0.238318
 C         1.987436         1.341471         0.380624
 O         3.418275         1.099395         0.226854
 C         3.367211        -0.346529         0.061529
 C         2.347530        -1.128821         0.932117
 C         2.109109        -2.188050        -0.228105
 C         2.104748        -0.830874        -0.927804
 O         1.890181        -0.758227        -2.330827
 H        -0.819119         0.536940         0.891099
 H        -0.408053         0.246561        -0.804004
 H        -0.588081        -1.057073         0.417953
 H         1.779179         1.742389        -0.602321
 H         1.797368         1.964060         1.226015
 H         4.384477        -0.739496        -0.186161
 H         2.468453        -1.536565         2.047589
 H         2.961922        -2.835743        -0.523926
 H         1.086147        -2.763476        -0.175916
 H         1.842283        -1.659911        -2.635870
