19
Iteration:    27
 C        -0.127192         0.145302         0.133756
 C         1.379890        -0.018807         0.365174
 C         2.163180         1.291937         0.191535
 O         3.530663         0.844629         0.048438
 C         3.369754        -0.592272        -0.064343
 C         2.264658        -1.191599         1.051519
 C         1.817167        -2.183027        -0.095353
 C         2.063401        -0.876792        -0.822262
 O         1.909427        -0.558866        -2.174580
 H        -0.574152         0.963697         0.694400
 H        -0.130684         0.521242        -0.918279
 H        -0.737825        -0.710450         0.088582
 H         1.784276         2.047377        -0.726480
 H         2.007850         2.000107         1.051511
 H         4.358636        -1.136918        -0.179348
 H         2.346761        -1.390526         2.140342
 H         2.553611        -2.915078        -0.494947
 H         0.758876        -2.445465        -0.084957
 H         1.481411        -1.256818        -2.584884
