19
Iteration:  3540
 C        -0.147857        -0.361754         0.292827
 C         1.278846        -0.010853         0.173915
 C         1.984685         1.313746         0.362873
 O         3.339009         0.996170         0.119022
 C         3.357806        -0.406382         0.038549
 C         2.322264        -1.028176         0.945754
 C         2.033494        -2.083022        -0.162114
 C         2.139148        -0.777009        -0.921096
 O         1.971928        -0.701051        -2.327026
 H        -0.700337         0.384086         0.877364
 H        -0.588970        -0.447734        -0.797499
 H        -0.246159        -1.332918         0.676878
 H         1.715624         2.029345        -0.386855
 H         2.025970         1.662524         1.452107
 H         4.305446        -0.839607        -0.075407
 H         2.414205        -1.189715         2.054761
 H         2.706772        -2.889836        -0.430735
 H         1.088033        -2.581762        -0.049626
 H         2.731062        -0.121401        -2.686267
