19
Iteration:  4435
 C        -0.240204        -0.214658         0.391724
 C         1.334185        -0.065249         0.199690
 C         1.886283         1.369936         0.230291
 O         3.320551         1.024630         0.101363
 C         3.325877        -0.384281        -0.026669
 C         2.315514        -1.034942         0.925504
 C         2.093390        -2.181134        -0.095671
 C         2.181126        -0.858083        -0.860119
 O         2.150864        -0.808879        -2.355991
 H        -0.619185        -1.082995        -0.108303
 H        -0.521267        -0.115373         1.440339
 H        -0.840829         0.677642         0.141007
 H         1.599816         2.022365        -0.593695
 H         1.787328         1.971055         1.154023
 H         4.241893        -0.813334        -0.279212
 H         2.451663        -1.132283         2.031551
 H         2.775570        -3.011608        -0.237776
 H         1.091015        -2.523725         0.024776
 H         1.798857         0.119354        -2.603569
