19
Iteration:   244charge 0 multiplicity 1
 C        -0.101205         0.230047         0.211526
 C         1.341034         0.000207         0.157586
 C         2.171644         1.285409         0.357512
 O         3.566340         0.858878         0.084039
 C         3.322498        -0.548187         0.056576
 C         2.166264        -1.053898         0.946502
 C         1.918790        -2.153119        -0.214261
 C         2.090181        -0.814099        -0.891924
 O         1.808390        -0.798131        -2.209742
 H        -0.315368         1.157556         0.775157
 H        -0.516470         0.340238        -0.878049
 H        -0.631111        -0.578639         0.665075
 H         1.823860         2.101729        -0.242042
 H         2.087177         1.461985         1.463430
 H         4.301286        -1.218223        -0.101333
 H         2.170817        -1.341688         2.049974
 H         2.776045        -2.816032        -0.261947
 H         0.999076        -2.749239        -0.381654
 H         2.448923        -1.536994        -2.482966
