19
Iteration:  2151charge 0 multiplicity 1
 C        -0.133037        -0.097378         0.197721
 C         1.347742        -0.015088         0.248062
 C         1.960285         1.332178         0.222848
 O         3.361422         0.987631         0.282548
 C         3.348146        -0.394192        -0.093015
 C         2.359491        -1.185823         0.959565
 C         2.093381        -2.181627        -0.168404
 C         2.100801        -0.802697        -0.864818
 O         1.907902        -0.672755        -2.270632
 H        -0.477895         0.648975         0.839416
 H        -0.600128        -0.084986        -0.826497
 H        -0.468198        -1.124095         0.621986
 H         1.484860         2.004527        -0.469108
 H         1.623235         1.791625         1.223963
 H         4.317332        -0.758555        -0.260532
 H         2.512770        -1.182358         2.002475
 H         2.969406        -2.767722        -0.407277
 H         1.248233        -2.776189        -0.237656
 H         2.210602        -1.497005        -2.617133
