19
Iteration:  2150charge 0 multiplicity 1
 C        -0.134986        -0.090899         0.201030
 C         1.346161        -0.010067         0.252934
 C         1.959796         1.325741         0.231341
 O         3.366540         1.000492         0.279644
 C         3.352275        -0.390335        -0.088982
 C         2.356978        -1.195388         0.955947
 C         2.094924        -2.182666        -0.174683
 C         2.095924        -0.805403        -0.855918
 O         1.906329        -0.677729        -2.279447
 H        -0.479925         0.633851         0.820708
 H        -0.595087        -0.090239        -0.835908
 H        -0.441203        -1.126375         0.585345
 H         1.526280         2.000641        -0.457896
 H         1.601969         1.805598         1.197506
 H         4.304075        -0.749310        -0.240965
 H         2.517849        -1.179346         2.050365
 H         2.969550        -2.759531        -0.426893
 H         1.231116        -2.806567        -0.247911
 H         2.197696        -1.547381        -2.623560
