19
Iteration:  3195charge 0 multiplicity 1
 C        -0.205626        -0.407290         0.258278
 C         1.338761        -0.051032         0.190935
 C         1.955348         1.338655         0.256089
 O         3.426816         1.031900         0.115690
 C         3.378706        -0.365486         0.069035
 C         2.262874        -1.004364         0.983927
 C         1.994472        -2.088334        -0.201508
 C         2.209115        -0.817134        -0.913573
 O         1.933691        -0.679133        -2.246836
 H        -0.606727         0.059410         1.244757
 H        -0.703168        -0.064561        -0.634859
 H        -0.398399        -1.606633         0.314128
 H         1.782529         2.008744        -0.621248
 H         1.846744         1.690545         1.192056
 H         4.353946        -0.792094        -0.043877
 H         2.380508        -1.374890         1.984917
 H         2.645064        -3.013933        -0.243768
 H         0.997090        -2.401374        -0.106324
 H         2.781154        -0.252389        -2.628116
