19
Iteration:   582charge 0 multiplicity 1
 C        -0.139282         0.092890         0.266908
 C         1.337147         0.016953         0.084338
 C         2.135306         1.308861         0.235744
 O         3.516214         0.815271         0.140758
 C         3.339097        -0.586590        -0.029808
 C         2.200634        -1.019077         0.971359
 C         1.976860        -2.178601        -0.068618
 C         2.058650        -0.875145        -0.852497
 O         1.874262        -0.717285        -2.231217
 H        -0.421427         0.263484         1.286015
 H        -0.519430         0.919817        -0.445548
 H        -0.642092        -0.820612        -0.018588
 H         1.776631         1.978589        -0.539198
 H         1.937165         1.743296         1.181984
 H         4.297802        -1.103305        -0.383836
 H         2.272623        -0.958363         2.049076
 H         2.738399        -2.902698        -0.382316
 H         1.002390        -2.696406         0.069662
 H         2.461678         0.034887        -2.579332
