19
Iteration:  3531
 C        -0.211144        -0.380830         0.191741
 C         1.300992        -0.066191         0.202335
 C         1.983831         1.324968         0.348404
 O         3.420772         1.017706         0.176288
 C         3.349978        -0.427597        -0.001239
 C         2.380016        -0.965796         0.978150
 C         2.007556        -2.111601        -0.170726
 C         2.122509        -0.789372        -0.901336
 O         1.939421        -0.738921        -2.322547
 H        -0.551015         0.335795         0.901554
 H        -0.748336        -0.109650        -0.739030
 H        -0.343541        -1.384694         0.506818
 H         1.522350         2.262548        -0.176690
 H         1.711121         1.682625         1.498089
 H         4.403975        -0.839821        -0.148605
 H         2.634320        -0.972446         2.046063
 H         2.829542        -2.789872        -0.539616
 H         1.088939        -2.507745         0.009296
 H         2.535325         0.005835        -2.709720
