19
Iteration:  2347
 C        -0.189943        -0.202385         0.245445
 C         1.335123        -0.119630         0.229531
 C         1.990146         1.330936         0.251237
 O         3.345950         1.020507        -0.030319
 C         3.299888        -0.469467         0.040002
 C         2.224223        -1.052637         0.963966
 C         2.125183        -2.285254        -0.068320
 C         2.193830        -0.859549        -0.886394
 O         1.969477        -0.557415        -2.234934
 H        -0.453054         0.550543         0.932588
 H        -0.475026         0.353347        -0.720835
 H        -0.781776        -1.134649         0.561803
 H         1.583552         2.065025        -0.506017
 H         1.884285         1.727977         1.302670
 H         4.296854        -0.958890         0.026070
 H         2.469820        -1.232432         1.965773
 H         2.934584        -3.065297        -0.211464
 H         1.170326        -2.735088         0.090372
 H         2.630901         0.065008        -2.430869
