19
Iteration:   264charge 0 multiplicity 1
 C        -0.186991         0.222349         0.295990
 C         1.335654         0.027149         0.217910
 C         2.194935         1.325855         0.348346
 O         3.492454         0.851933         0.121348
 C         3.328593        -0.511486        -0.114008
 C         2.219049        -1.151105         0.963212
 C         1.786719        -2.182600        -0.072780
 C         2.090049        -0.902206        -0.908247
 O         2.038922        -0.733918        -2.323875
 H        -0.388415         1.106128         0.916770
 H        -0.662423         0.317870        -0.732683
 H        -0.702607        -0.570387         0.732450
 H         1.886957         2.038683        -0.508883
 H         2.063370         1.778227         1.399993
 H         4.357727        -0.979194        -0.303496
 H         2.314574        -1.215547         2.036924
 H         2.343350        -3.064796        -0.267344
 H         0.774988        -2.498088         0.077687
 H         2.352767        -1.590323        -2.800246
