19
Iteration:  3509charge 0 multiplicity 1
 C        -0.177578        -0.211069         0.173002
 C         1.283068        -0.068779         0.218562
 C         1.984488         1.270480         0.384053
 O         3.355707         1.048307         0.230377
 C         3.391826        -0.314009        -0.082757
 C         2.330206        -1.086871         0.881246
 C         2.121524        -2.173972        -0.068992
 C         2.195774        -0.847175        -0.924672
 O         1.884666        -0.782553        -2.291285
 H        -0.706778         0.155788         1.000723
 H        -0.468907         0.481868        -0.646104
 H        -0.329275        -1.185657        -0.175948
 H         1.551171         2.022849        -0.424031
 H         1.799162         1.927740         1.384470
 H         4.421920        -0.664099        -0.321795
 H         2.412921        -1.289983         1.962409
 H         2.928683        -2.942407        -0.154072
 H         1.164055        -2.556891         0.001629
 H         1.881243         0.118703        -2.536901
