19
Iteration:   405charge 0 multiplicity 1
 C        -0.172855         0.057071         0.221143
 C         1.292184         0.120420         0.242128
 C         2.239960         1.356134         0.407481
 O         3.585501         0.813676         0.049872
 C         3.350833        -0.561137         0.010711
 C         2.140740        -1.018490         0.930266
 C         1.871875        -2.139477        -0.163965
 C         2.056118        -0.844444        -0.873280
 O         1.896746        -0.882668        -2.276834
 H        -0.620745         0.550681         1.099787
 H        -0.614388         0.545135        -0.732649
 H        -0.469810        -0.957404         0.173129
 H         2.075607         2.188747        -0.300310
 H         2.340701         1.799708         1.361790
 H         4.414039        -1.003253        -0.038084
 H         2.154405        -1.085709         2.022428
 H         2.681775        -2.881612        -0.209568
 H         0.879942        -2.624164        -0.322803
 H         2.149338         0.065329        -2.639718
