19
Iteration:  4499
 C        -0.237695        -0.183882         0.337181
 C         1.275672        -0.072775         0.257397
 C         1.893898         1.267720         0.210227
 O         3.349154         1.049843         0.043194
 C         3.336136        -0.372722        -0.017868
 C         2.349468        -0.997304         0.954445
 C         2.116142        -2.157015        -0.044951
 C         2.160896        -0.868838        -0.918533
 O         2.061252        -0.725299        -2.297151
 H        -0.818988        -0.194880        -0.738900
 H        -0.535165        -1.125564         0.873241
 H        -0.557089         0.554921         1.132052
 H         1.470730         1.842360        -0.675975
 H         1.587651         1.756997         1.118951
 H         4.341471        -0.797580        -0.217537
 H         2.428836        -0.999142         2.026092
 H         2.702092        -3.052473        -0.111403
 H         1.156562        -2.622171         0.058153
 H         2.976886        -0.782802        -2.662867
