19
Iteration:  2166charge 0 multiplicity 1
 C        -0.189588        -0.182676         0.264571
 C         1.331082        -0.142645         0.137441
 C         1.950289         1.292548         0.293922
 O         3.354360         0.944689         0.219151
 C         3.349238        -0.435120        -0.026676
 C         2.359291        -1.002486         0.903501
 C         2.079446        -2.146219        -0.095882
 C         2.181747        -0.868314        -0.924638
 O         1.899544        -0.564160        -2.242171
 H        -0.562468         0.815318         0.793912
 H        -0.562215        -0.062375        -0.741869
 H        -0.647929        -1.074324         0.680322
 H         1.941151         1.916518        -0.681373
 H         1.768126         1.993002         1.147190
 H         4.410512        -0.850268        -0.279862
 H         2.528976        -1.219958         1.972966
 H         2.848643        -2.947550        -0.214687
 H         1.042350        -2.579481         0.031024
 H         2.480214        -1.107118        -2.882599
