19
Iteration:  4977charge 0 multiplicity 1
 C        -0.181510        -0.071213         0.418297
 C         1.275406        -0.130756         0.235184
 C         1.869509         1.259703         0.100910
 O         3.210443         1.035275        -0.118089
 C         3.357638        -0.359877        -0.038537
 C         2.251586        -0.989841         0.997496
 C         2.123017        -2.231302         0.019467
 C         2.197367        -0.910765        -0.798962
 O         2.172963        -0.767294        -2.275461
 H        -0.459711        -0.519845         1.360182
 H        -0.486963         1.009998         0.321260
 H        -0.673956        -0.798096        -0.359576
 H         1.414505         1.805713        -0.793879
 H         1.650699         2.015407         0.891784
 H         4.364202        -0.941668         0.065341
 H         2.228933        -0.976766         2.132230
 H         3.049647        -2.645048        -0.095608
 H         1.178745        -2.766130        -0.000548
 H         2.933401        -0.119360        -2.361960
