19
Iteration:   314charge 0 multiplicity 1
 C        -0.157249         0.037853         0.414314
 C         1.331707         0.099984         0.123218
 C         2.225231         1.404452         0.061685
 O         3.600977         0.831315         0.033006
 C         3.295522        -0.642893         0.091107
 C         2.083491        -1.098410         0.918443
 C         1.779164        -2.168013        -0.131638
 C         2.074271        -0.869119        -0.825881
 O         2.068461        -0.609800        -2.171190
 H        -0.355058         0.420221         1.449190
 H        -0.722746         0.652901        -0.236683
 H        -0.589152        -1.047420         0.319237
 H         2.073348         1.949671        -0.821537
 H         2.007574         1.967542         0.914542
 H         4.071097        -1.301304         0.152220
 H         2.219519        -1.263516         1.990440
 H         2.552845        -3.033558        -0.153775
 H         0.779719        -2.527571        -0.438208
 H         1.730666        -1.373439        -2.702142
