19
Iteration:   854
 C        -0.150027        -0.000932         0.282221
 C         1.346642         0.040835         0.259503
 C         2.108018         1.331609         0.306011
 O         3.492096         0.909742         0.144116
 C         3.326828        -0.473688        -0.028888
 C         2.298312        -1.085217         1.018296
 C         1.872859        -2.165122        -0.187078
 C         2.012240        -0.863429        -0.899493
 O         2.016406        -0.793088        -2.317366
 H        -0.677767         0.294582         1.183619
 H        -0.610929         0.721994        -0.597050
 H        -0.483461        -0.993073         0.085387
 H         1.890903         1.815667        -0.628545
 H         1.880172         1.962034         1.160690
 H         4.211834        -0.963022        -0.376097
 H         2.435133        -1.429438         2.010327
 H         2.569673        -3.028769        -0.420168
 H         0.903971        -2.625500        -0.007306
 H         2.025405         0.112816        -2.564489
