19
Iteration:   538charge 0 multiplicity 1
 C        -0.068657         0.132861         0.162093
 C         1.409098         0.000027         0.231484
 C         2.074909         1.294431         0.500264
 O         3.482542         0.939016         0.075978
 C         3.335934        -0.487960        -0.091836
 C         2.281654        -1.076802         0.921492
 C         1.774092        -2.091057        -0.090928
 C         2.157459        -0.881230        -0.925181
 O         1.932795        -0.956115        -2.271507
 H        -0.450621         0.142851         1.173612
 H        -0.250466         1.127689        -0.424080
 H        -0.618386        -0.619163        -0.361546
 H         1.851892         2.159411        -0.102107
 H         2.087254         1.578123         1.508192
 H         4.407280        -0.951426        -0.216021
 H         2.376205        -1.156100         2.028531
 H         2.462075        -2.943164        -0.198716
 H         0.699858        -2.419699        -0.167166
 H         1.275817        -0.193775        -2.526129
