19
Iteration:  2987
 C        -0.152270        -0.290948         0.156523
 C         1.315694        -0.065597         0.157916
 C         1.897640         1.336031         0.390086
 O         3.404760         1.011834         0.106472
 C         3.407978        -0.387186         0.009012
 C         2.355624        -0.993339         1.009804
 C         2.025708        -2.109515        -0.117252
 C         2.159035        -0.838497        -0.926991
 O         1.891634        -0.735805        -2.261125
 H        -0.728219        -0.082791         1.075690
 H        -0.607688         0.170077        -0.678170
 H        -0.390529        -1.364990        -0.078173
 H         1.754093         2.078590        -0.356852
 H         1.880842         1.646444         1.519500
 H         4.433501        -0.796430        -0.046172
 H         2.508117        -1.177829         2.095421
 H         2.810447        -2.904756        -0.417237
 H         0.985371        -2.475023        -0.095626
 H         2.547746        -0.169696        -2.615560
