19
Iteration:   833
 C        -0.279465         0.009184         0.483394
 C         1.300128         0.013206         0.095566
 C         2.093154         1.325318         0.353696
 O         3.484590         0.889868         0.094673
 C         3.334895        -0.498237        -0.022818
 C         2.157858        -1.021267         0.888410
 C         1.917618        -2.110349        -0.146685
 C         2.187027        -0.844750        -0.979285
 O         2.052768        -0.855979        -2.333042
 H        -0.342990        -0.071758         1.532403
 H        -0.553416         1.090002         0.011762
 H        -0.850118        -0.843960         0.179699
 H         1.844501         2.160376        -0.314820
 H         2.055100         1.619837         1.455369
 H         4.245818        -1.081931         0.065535
 H         2.223943        -1.140558         1.981404
 H         2.736269        -2.917216        -0.027951
 H         0.948452        -2.591952        -0.254831
 H         2.614499        -0.102906        -2.815588
