19
Iteration:    61charge 0 multiplicity 1
 C        -0.160399         0.088827         0.197113
 C         1.369464         0.010024         0.169031
 C         2.199209         1.281302         0.311343
 O         3.616356         0.855390         0.179214
 C         3.363462        -0.588516        -0.147499
 C         2.102667        -1.043512         0.922654
 C         1.855414        -2.181860         0.048818
 C         2.145843        -0.929393        -0.929771
 O         1.880274        -0.655028        -2.294563
 H        -0.571675         0.801982         0.912178
 H        -0.566856         0.290369        -0.803457
 H        -0.607273        -0.884475         0.433401
 H         1.969454         2.082378        -0.559588
 H         2.173810         1.686732         1.357665
 H         4.330994        -1.091565        -0.074006
 H         2.197694        -0.954912         2.066208
 H         2.598008        -3.023796         0.032121
 H         0.848820        -2.678374        -0.006323
 H         1.236036         0.064077        -2.299360
