19
Iteration:  4805
 C        -0.119256        -0.311854         0.449748
 C         1.341227        -0.009012         0.088627
 C         1.922089         1.393833         0.003426
 O         3.301131         1.100706        -0.009975
 C         3.298620        -0.443088         0.006092
 C         2.255164        -0.892750         0.991095
 C         1.916017        -2.137154         0.149339
 C         2.130855        -0.904536        -0.907532
 O         2.177777        -0.867629        -2.292872
 H        -0.505013        -1.194346         0.056827
 H        -0.252909        -0.537682         1.512541
 H        -0.794461         0.531387         0.238993
 H         1.753535         2.044160        -0.773670
 H         1.719167         1.883330         0.960270
 H         4.324700        -0.817739        -0.096649
 H         2.408049        -0.759416         2.137503
 H         2.846420        -2.907849         0.073325
 H         0.972213        -2.734844         0.160885
 H         2.978971        -0.431774        -2.726672
