19
Iteration:  2304charge 0 multiplicity 1
 C        -0.162295        -0.217313         0.273508
 C         1.300896        -0.066294         0.273376
 C         1.948345         1.452402         0.325668
 O         3.419360         0.997195         0.257676
 C         3.324807        -0.411051        -0.103449
 C         2.362249        -1.010125         0.941059
 C         2.016957        -2.121296        -0.114411
 C         2.132625        -0.886274        -0.982445
 O         1.974592        -0.853063        -2.327889
 H        -0.723750        -0.112697         1.167216
 H        -0.592794         0.649767        -0.376986
 H        -0.361273        -1.224260        -0.302950
 H         1.512733         2.038060        -0.529020
 H         1.817434         2.106238         1.243516
 H         4.324289        -0.932726        -0.115851
 H         2.481023        -1.013538         1.979803
 H         2.783978        -2.872473        -0.402314
 H         1.071228        -2.590998        -0.101526
 H         2.354932        -0.091849        -2.715413
