19
Iteration:  1177charge 0 multiplicity 1
 C        -0.185575        -0.107930         0.521938
 C         1.290500        -0.027694         0.086323
 C         2.124806         1.321934         0.207794
 O         3.483254         0.849023        -0.013363
 C         3.312996        -0.581754         0.027846
 C         2.144139        -1.051369         0.959635
 C         1.824649        -2.115467        -0.071897
 C         2.119939        -0.868400        -0.925680
 O         2.207290        -0.583479        -2.303202
 H        -0.594942         0.962573         0.338371
 H        -0.739370        -0.640067        -0.127051
 H        -0.335946        -0.679620         1.505389
 H         2.048093         2.097907        -0.504733
 H         1.976381         1.702820         1.259898
 H         4.353112        -1.063658        -0.201920
 H         1.853565        -1.183724         2.015128
 H         2.538858        -2.913034        -0.061554
 H         0.761383        -2.286672        -0.228609
 H         1.579791         0.066186        -2.533673
