19
Iteration:  4184charge 0 multiplicity 1
 C        -0.166997        -0.166193         0.175364
 C         1.353799        -0.198138         0.262362
 C         1.899323         1.214088         0.365233
 O         3.343497         1.088073         0.163184
 C         3.401334        -0.337607        -0.049817
 C         2.332587        -1.137311         0.937549
 C         2.145587        -2.189673        -0.151901
 C         2.189446        -0.869660        -0.864582
 O         1.849343        -0.610683        -2.279076
 H        -0.500353         0.577961        -0.664484
 H        -0.720211        -1.098841        -0.211040
 H        -0.672625         0.247181         1.119409
 H         1.597232         1.912313        -0.403018
 H         1.646551         1.658177         1.272184
 H         4.475768        -0.680301        -0.240625
 H         2.471352        -1.388049         1.995669
 H         3.124747        -2.817625        -0.230220
 H         1.263173        -2.798018        -0.226636
 H         2.415974         0.111678        -2.565414
