19
Iteration:  2144charge 0 multiplicity 1
 C        -0.149789        -0.082304         0.207611
 C         1.334123        -0.028176         0.251522
 C         1.961652         1.295810         0.323027
 O         3.395446         1.078436         0.249953
 C         3.356014        -0.362550        -0.031042
 C         2.347273        -1.205067         0.954068
 C         2.093882        -2.194301        -0.209920
 C         2.080489        -0.822266        -0.839199
 O         1.899050        -0.722771        -2.327148
 H        -0.725677         0.725689         0.886125
 H        -0.474051         0.008857        -0.812024
 H        -0.354521        -1.119301         0.440117
 H         1.822993         1.988164        -0.642175
 H         1.609714         1.934818         1.142060
 H         4.442211        -0.774446        -0.192603
 H         2.507846        -1.280849         2.035431
 H         3.007989        -2.768370        -0.544400
 H         1.181059        -2.861921        -0.255447
 H         2.036624        -1.599704        -2.609328
