19
Iteration:  1936
 C        -0.168149        -0.140060         0.082562
 C         1.328118        -0.082116         0.153186
 C         2.035055         1.328138         0.360575
 O         3.383557         0.990640         0.119697
 C         3.348884        -0.444842        -0.030438
 C         2.291123        -1.061890         0.998240
 C         2.167863        -2.274361        -0.033342
 C         2.135587        -0.839251        -0.905725
 O         1.812385        -0.590165        -2.248537
 H        -0.698172         0.479756         0.939431
 H        -0.655035         0.193347        -0.816561
 H        -0.611179        -1.085696         0.269072
 H         1.739117         2.224071        -0.293577
 H         1.823479         1.601726         1.493490
 H         4.333908        -0.848625        -0.203575
 H         2.294743        -1.221709         2.001306
 H         3.098854        -2.997389        -0.029974
 H         1.202662        -2.766640         0.018493
 H         2.721759        -0.660538        -2.741072
