19
Iteration:  2377charge 0 multiplicity 1
 C        -0.277941        -0.152788         0.347099
 C         1.270898        -0.083523         0.246968
 C         1.922316         1.313164         0.214453
 O         3.411279         0.997674         0.092552
 C         3.353321        -0.446555        -0.038307
 C         2.339779        -1.048326         0.965634
 C         2.089084        -2.227636        -0.145837
 C         2.092186        -0.848126        -0.879133
 O         2.092067        -0.652801        -2.279926
 H        -0.633313         0.776171         0.769588
 H        -0.725510        -0.132156        -0.634034
 H        -0.660561        -1.009333         0.853844
 H         1.484407         1.982899        -0.523946
 H         1.666812         1.729535         1.149289
 H         4.208001        -0.938641        -0.253241
 H         2.486180        -1.302925         2.014963
 H         2.808956        -2.978574        -0.583933
 H         1.140107        -2.667264         0.138008
 H         2.752328         0.095803        -2.386979
