19
Iteration:  4073charge 0 multiplicity 1
 C        -0.270148        -0.163246         0.361821
 C         1.311523        -0.105852         0.273972
 C         1.906461         1.255396         0.403604
 O         3.285359         0.992902         0.191347
 C         3.362572        -0.375039        -0.058992
 C         2.364654        -1.149525         0.898686
 C         2.177093        -2.151780        -0.230709
 C         2.181207        -0.794741        -0.967804
 O         2.014049        -0.655846        -2.353602
 H        -0.430313        -1.167632         0.033050
 H        -0.867903         0.156467         1.258053
 H        -0.595806         0.547880        -0.407176
 H         1.452587         2.044571        -0.227668
 H         1.752739         1.508719         1.425591
 H         4.368136        -0.916518        -0.139033
 H         2.492361        -1.259697         1.916799
 H         2.992650        -2.876901        -0.505495
 H         1.222569        -2.668507        -0.257200
 H         2.473375         0.203949        -2.591044
