19
Iteration:   663
 C        -0.241098         0.107666         0.422819
 C         1.361564        -0.049271         0.131325
 C         2.156194         1.244735         0.336565
 O         3.485214         0.874508         0.100692
 C         3.338377        -0.500618         0.036727
 C         2.207639        -1.050933         0.921707
 C         1.915639        -2.182641        -0.029490
 C         2.084331        -0.874909        -0.922236
 O         2.054479        -0.651433        -2.480653
 H        -0.446583         1.164493         0.839554
 H        -0.795830         0.082711        -0.502132
 H        -0.619187        -0.863452         0.984119
 H         1.715480         2.030648        -0.327562
 H         2.196650         1.558993         1.381820
 H         4.382060        -0.754152        -0.083465
 H         2.174183        -1.097795         2.066348
 H         2.741856        -2.895456        -0.086428
 H         0.945417        -2.731950        -0.045821
 H         1.263124        -1.243241        -2.848685
