19
Iteration:   681charge 0 multiplicity 1
 C        -0.148894         0.131601         0.264247
 C         1.333455        -0.035358         0.234763
 C         2.055833         1.307393         0.423994
 O         3.471040         0.918080         0.137224
 C         3.345219        -0.518018        -0.095183
 C         2.317837        -1.083010         0.938584
 C         1.896172        -2.149232        -0.139732
 C         2.148288        -0.878780        -0.976853
 O         2.006588        -0.784967        -2.303988
 H        -0.308615         1.052322         0.758483
 H        -0.611121         0.171950        -0.718785
 H        -0.673060        -0.716831         0.744612
 H         1.734851         2.104000        -0.249803
 H         1.801096         1.646452         1.429321
 H         4.270598        -1.057203        -0.156018
 H         2.444294        -1.237554         1.967893
 H         2.530828        -3.034347        -0.291836
 H         0.885501        -2.402366        -0.031704
 H         0.975335        -0.807653        -2.508199
