19
Iteration:   721charge 0 multiplicity 1
 C        -0.204212        -0.045218         0.121020
 C         1.403501        -0.028050         0.219669
 C         2.123995         1.311790         0.319501
 O         3.568874         0.877037         0.163705
 C         3.345280        -0.532868         0.003989
 C         2.311293        -1.042992         0.973174
 C         1.945809        -2.116797        -0.050460
 C         2.100215        -0.867840        -0.935422
 O         1.813299        -0.699109        -2.308846
 H        -0.791361         0.218800         1.020498
 H        -0.437769         0.635963        -0.795412
 H        -0.659323        -0.995963        -0.015294
 H         1.758177         2.014725        -0.463985
 H         2.172551         1.902382         1.318262
 H         4.298387        -1.142790        -0.079197
 H         2.462907        -1.166639         2.031258
 H         2.735744        -2.902094        -0.153972
 H         0.856300        -2.423897         0.021732
 H         1.240183         0.017661        -2.302813
