19
Iteration:  2590charge 0 multiplicity 1
 C        -0.273298        -0.055773         0.334133
 C         1.329038        -0.128974         0.232075
 C         1.883453         1.308035         0.345007
 O         3.388238         1.036412         0.140046
 C         3.388433        -0.349397        -0.116465
 C         2.236217        -1.112829         0.957639
 C         2.170833        -2.223299        -0.151281
 C         2.120419        -0.867114        -0.864953
 O         2.057044        -0.664146        -2.307379
 H        -0.700732         0.637888         1.070009
 H        -0.538832         0.269246        -0.749057
 H        -0.834416        -1.017075         0.329134
 H         1.514500         1.981772        -0.514100
 H         1.682607         1.694125         1.343540
 H         4.454618        -0.758530        -0.239726
 H         2.428543        -1.282651         2.015785
 H         3.113482        -2.810605        -0.235024
 H         1.253345        -2.905066        -0.212579
 H         2.296019        -1.456278        -2.883761
