19
Iteration:  4524charge 0 multiplicity 1
 C        -0.183183        -0.125836         0.190410
 C         1.337165        -0.098477         0.195175
 C         1.937890         1.308615         0.180540
 O         3.282234         1.082827         0.082756
 C         3.381429        -0.386420        -0.021746
 C         2.320378        -1.044630         0.988009
 C         2.197001        -2.192669         0.012166
 C         2.171167        -0.934739        -0.872028
 O         1.880588        -0.688433        -2.227587
 H        -0.466509         0.541144        -0.648465
 H        -0.756991        -1.064842         0.049598
 H        -0.490389         0.178377         1.231309
 H         1.520893         1.914475        -0.595510
 H         1.568323         1.713267         1.126192
 H         4.377725        -0.694921        -0.147928
 H         2.589391        -1.168694         2.126391
 H         3.048340        -2.820907        -0.125440
 H         1.472584        -2.949848         0.082441
 H         2.634081        -1.112553        -2.773350
