19
Iteration:  2277
 C        -0.215801        -0.106744         0.351397
 C         1.261337        -0.091095         0.081537
 C         1.994204         1.346885         0.343423
 O         3.409235         1.034460         0.234353
 C         3.370007        -0.365346         0.024331
 C         2.252294        -1.062118         0.915916
 C         2.122471        -2.081613        -0.146758
 C         2.168942        -0.788288        -0.984473
 O         1.989636        -0.944521        -2.362741
 H        -0.360498        -0.221482         1.493935
 H        -0.704729         0.785041         0.010237
 H        -0.634480        -1.013821         0.017688
 H         1.582740         2.039302        -0.429559
 H         1.843566         1.622151         1.373471
 H         4.326126        -0.894459         0.019904
 H         2.187079        -1.205292         2.060213
 H         2.931912        -2.803868        -0.378143
 H         1.125016        -2.650532        -0.184380
 H         1.937056        -0.171506        -2.880611
