19
Iteration:  3931charge 0 multiplicity 1
 C        -0.215683        -0.108518         0.523474
 C         1.295578        -0.176066         0.326422
 C         1.842769         1.154731         0.425387
 O         3.257969         1.001522         0.204985
 C         3.290736        -0.395860        -0.025447
 C         2.349563        -1.241623         0.867893
 C         2.114919        -2.133912        -0.389031
 C         2.125275        -0.762834        -0.960839
 O         2.200287        -0.526667        -2.448733
 H        -0.381976         0.762993         1.255712
 H        -0.758272        -0.069880        -0.464315
 H        -0.516591        -1.107656         0.961355
 H         1.379003         1.810461        -0.339555
 H         1.716213         1.577301         1.469312
 H         4.250225        -0.724772        -0.518619
 H         2.456144        -1.524989         1.910740
 H         2.944559        -2.801516        -0.569115
 H         1.234014        -2.713247        -0.403025
 H         2.758791         0.312785        -2.543099
