19
Iteration:  2805
 C        -0.244007        -0.064475         0.168552
 C         1.350044        -0.119757         0.239110
 C         1.929628         1.372733         0.258652
 O         3.321738         1.033677         0.242089
 C         3.414175        -0.364324        -0.060420
 C         2.383811        -1.187989         0.983731
 C         2.211179        -2.235899        -0.096910
 C         2.176837        -0.890218        -0.921891
 O         1.858158        -0.619163        -2.245789
 H        -0.752499         0.531934         0.956906
 H        -0.412868         0.434590        -0.817797
 H        -0.893987        -1.029732         0.040073
 H         1.619857         1.870132        -0.706465
 H         1.544016         2.059591         1.189586
 H         4.384620        -0.838420        -0.237151
 H         2.423647        -1.407620         2.006611
 H         3.163619        -2.821244        -0.217379
 H         1.383257        -2.872893        -0.227898
 H         2.053908        -1.522280        -2.689584
