19
Iteration:  4301
 C        -0.255345        -0.131923         0.529477
 C         1.278512        -0.071777         0.227490
 C         1.843298         1.267848         0.223965
 O         3.308789         0.999617         0.088360
 C         3.264830        -0.419447        -0.011504
 C         2.301920        -1.121927         0.926004
 C         2.162933        -2.227304        -0.190523
 C         2.196158        -0.844372        -0.965992
 O         2.164366        -0.611219        -2.339220
 H        -0.500229         0.342479         1.669950
 H        -0.805477         0.440531        -0.298125
 H        -0.483766        -1.221345         0.633796
 H         1.467911         1.887466        -0.668287
 H         1.464255         1.886189         1.157930
 H         4.312057        -0.858861        -0.201707
 H         2.246132        -1.258090         1.927474
 H         3.046091        -2.840657        -0.412969
 H         1.276067        -2.829759        -0.003777
 H         2.951844        -0.026594        -2.587124
