19
Iteration:  2451
 C        -0.213853        -0.177207         0.270810
 C         1.321746        -0.059394         0.238276
 C         1.936137         1.359130         0.348623
 O         3.406488         1.009418         0.164141
 C         3.338374        -0.407859        -0.050331
 C         2.281572        -1.033512         0.933159
 C         2.096344        -2.189737        -0.102366
 C         2.163580        -0.814773        -0.984285
 O         2.004027        -0.821509        -2.313156
 H        -0.761140         0.443276         1.146763
 H        -0.525682         0.309605        -0.634430
 H        -0.593784        -1.165720         0.129180
 H         1.622673         2.149382        -0.380450
 H         1.745818         1.816957         1.402860
 H         4.264715        -0.929039        -0.257810
 H         2.380664        -1.087273         2.037377
 H         2.958496        -2.821713        -0.041504
 H         1.208723        -2.840112        -0.148310
 H         2.100652         0.140746        -2.639914
