19
Iteration:  4869
 C        -0.184864         0.011072         0.208235
 C         1.309661        -0.072574         0.198247
 C         1.896369         1.279162         0.181094
 O         3.247873         1.099679         0.022512
 C         3.364372        -0.362826        -0.048927
 C         2.356644        -0.940247         0.982296
 C         2.198972        -2.199653         0.068448
 C         2.164255        -0.941724        -0.828925
 O         2.003793        -1.004697        -2.255664
 H        -0.574195        -0.891101        -0.255045
 H        -0.578329         0.140640         1.262341
 H        -0.599261         0.831771        -0.471476
 H         1.421580         1.838792        -0.687921
 H         1.645466         1.874506         1.101266
 H         4.386272        -0.819538        -0.107622
 H         2.385785        -0.886660         2.114687
 H         3.091212        -2.734038         0.040417
 H         1.528794        -2.992282         0.238173
 H         2.052389        -0.021570        -2.555541
