19
Iteration:  2502charge 0 multiplicity 1
 C        -0.195071        -0.187582         0.211416
 C         1.305834        -0.116701         0.271451
 C         1.985716         1.278448         0.249509
 O         3.374953         1.038392         0.069938
 C         3.334732        -0.393700        -0.039792
 C         2.266347        -1.028497         1.011994
 C         2.083461        -2.207146        -0.072317
 C         2.144453        -0.890643        -0.946094
 O         1.963602        -0.612542        -2.231882
 H        -0.548129        -0.305875         1.185794
 H        -0.658033         0.709269        -0.269046
 H        -0.578954        -1.091082        -0.323869
 H         1.687852         1.767071        -0.712614
 H         1.799940         1.887118         1.115418
 H         4.414015        -0.865698        -0.000358
 H         2.505694        -1.080200         2.100962
 H         2.869240        -2.966694        -0.236981
 H         1.138819        -2.821013         0.095910
 H         2.894218        -0.342729        -2.520857
