19
Iteration:  4492
 C        -0.242392        -0.234483         0.399292
 C         1.328970        -0.057790         0.197031
 C         1.937881         1.314030         0.189271
 O         3.284266         1.064736         0.051971
 C         3.376696        -0.388170        -0.030614
 C         2.307971        -0.988567         0.950577
 C         2.021984        -2.139902        -0.061263
 C         2.167922        -0.900905        -0.902027
 O         2.098178        -0.737495        -2.298890
 H        -0.807868        -0.298127        -0.435517
 H        -0.415475        -1.175933         0.901031
 H        -0.661054         0.669340         0.859373
 H         1.499548         1.880494        -0.597445
 H         1.665078         1.748381         1.188454
 H         4.296834        -0.892286        -0.142825
 H         2.640421        -1.184297         2.055813
 H         2.894165        -2.830396        -0.235330
 H         1.034639        -2.589177         0.064855
 H         2.996761        -0.660417        -2.543727
