19
Iteration:  4725
 C        -0.235764        -0.214503         0.067428
 C         1.334187        -0.024791         0.194552
 C         1.951595         1.335307         0.318879
 O         3.373502         1.109820         0.020455
 C         3.433478        -0.354691        -0.007271
 C         2.360984        -0.898334         1.017855
 C         2.112300        -2.097790         0.104250
 C         2.159885        -0.951501        -0.908672
 O         1.915800        -0.977382        -2.266661
 H        -0.446019        -1.245119         0.566897
 H        -0.673987         0.693108         0.571965
 H        -0.820078        -0.319286        -0.912909
 H         1.617697         1.910670        -0.506901
 H         1.770519         1.934932         1.257513
 H         4.498378        -0.926826        -0.086350
 H         2.499725        -0.885264         2.050221
 H         2.960220        -2.889671         0.013918
 H         1.084577        -2.684850         0.145521
 H         1.537152        -0.085823        -2.529790
