19
Iteration:  2291charge 0 multiplicity 1
 C        -0.238647        -0.164893         0.314923
 C         1.340877         0.055911         0.254863
 C         2.013444         1.355852         0.343229
 O         3.411553         1.052997         0.262693
 C         3.355942        -0.348454         0.001451
 C         2.281314        -1.034780         0.893761
 C         2.053399        -2.198034        -0.164064
 C         2.120011        -0.868705        -0.948352
 O         1.970002        -0.939987        -2.420385
 H        -0.571750        -0.263051         1.308190
 H        -0.871273         0.626841        -0.256269
 H        -0.509380        -1.126037        -0.259271
 H         1.897107         2.077345        -0.533889
 H         1.760247         1.895428         1.242177
 H         4.317483        -0.608999        -0.229422
 H         2.499685        -1.242571         1.942244
 H         2.983696        -2.843793        -0.152618
 H         1.127303        -2.764877        -0.104987
 H         2.198613         0.021849        -2.704224
