19
Iteration:   559
 C        -0.263504         0.162164         0.187934
 C         1.315142         0.019914         0.277240
 C         2.247235         1.343585         0.400460
 O         3.538625         0.885051         0.059703
 C         3.351552        -0.512519        -0.002261
 C         2.183145        -1.071986         0.985774
 C         2.020729        -2.170475        -0.110386
 C         2.073170        -0.897766        -0.894218
 O         1.866583        -0.869854        -2.346906
 H        -0.786337         0.094281         1.125746
 H        -0.504173         1.072275        -0.509591
 H        -0.614506        -0.675207        -0.330914
 H         1.888648         2.142214        -0.261489
 H         2.277959         1.707769         1.427197
 H         4.462970        -0.959470         0.012340
 H         2.331580        -1.320856         2.072743
 H         2.803448        -2.961447        -0.167399
 H         0.976747        -2.659588        -0.077623
 H         1.606509        -0.021086        -2.755627
