19
Iteration:  2422
 C        -0.176250        -0.268525         0.391212
 C         1.341905        -0.070027         0.110866
 C         1.955529         1.328647         0.348243
 O         3.428138         1.053158         0.212459
 C         3.345764        -0.403710         0.063595
 C         2.310844        -0.984785         0.898526
 C         1.946734        -2.097562        -0.194952
 C         2.111460        -0.778229        -0.996247
 O         2.052864        -0.890404        -2.350307
 H        -0.534803         0.562459         0.898833
 H        -0.734600        -0.176544        -0.568733
 H        -0.369807        -1.261837         0.812686
 H         1.738083         2.178099        -0.339857
 H         1.757055         1.780635         1.285829
 H         4.282597        -0.909678         0.019169
 H         2.332562        -0.975629         1.967385
 H         2.817489        -2.845718        -0.299033
 H         0.982694        -2.579911        -0.208270
 H         2.058559         0.057719        -2.742504
