19
Iteration:  3293charge 0 multiplicity 1
 C        -0.181861        -0.293371         0.264626
 C         1.276276        -0.083934         0.163224
 C         1.996402         1.276782         0.371645
 O         3.355011         0.997098         0.131570
 C         3.353764        -0.389469        -0.003558
 C         2.298462        -0.972825         0.929123
 C         2.051264        -2.103724        -0.060007
 C         2.132015        -0.814059        -0.933198
 O         2.033192        -0.738795        -2.384761
 H        -0.537308        -0.149784         1.303128
 H        -0.663992         0.230970        -0.469212
 H        -0.489641        -1.405342         0.116091
 H         1.710598         2.114003        -0.302567
 H         1.784276         1.816075         1.493585
 H         4.390377        -0.695138        -0.117658
 H         2.438265        -1.135084         1.983089
 H         2.795605        -2.901044        -0.304827
 H         1.140630        -2.571944         0.046359
 H         2.157623         0.278175        -2.409678
