19
Iteration:  3965charge 0 multiplicity 1
 C        -0.205937        -0.189211         0.529494
 C         1.283035        -0.095334         0.180360
 C         1.899713         1.174775         0.461348
 O         3.310266         1.036391         0.181260
 C         3.321622        -0.387982         0.041564
 C         2.303946        -1.114045         0.877607
 C         2.113617        -2.222676        -0.385933
 C         2.146514        -0.804640        -1.015555
 O         2.129503        -0.552556        -2.415124
 H        -0.558732        -0.225583         1.639096
 H        -0.939001         0.499586         0.030070
 H        -0.588179        -1.215094         0.263286
 H         1.483098         1.998307        -0.192673
 H         1.712515         1.503871         1.560691
 H         4.339577        -0.881137        -0.225945
 H         2.407005        -1.431757         1.882134
 H         3.010541        -2.841972        -0.499827
 H         1.214993        -2.673835        -0.334128
 H         2.586480         0.349007        -2.579154
