19
Iteration:   786
 C        -0.267787         0.068856         0.496890
 C         1.268202        -0.016653         0.314020
 C         2.008599         1.322308         0.254281
 O         3.439624         0.919329         0.103069
 C         3.323896        -0.507956        -0.123032
 C         2.297839        -1.114944         0.878645
 C         1.823715        -2.066353        -0.148930
 C         2.160600        -0.886430        -0.932701
 O         2.178345        -0.814455        -2.310782
 H        -0.506844        -0.427847         1.483470
 H        -0.597389         1.207052         0.411149
 H        -0.754002        -0.626697        -0.174531
 H         1.712820         1.911611        -0.615682
 H         1.960496         1.906978         1.171080
 H         4.260557        -0.907312        -0.507575
 H         2.480515        -1.291063         1.899211
 H         2.403698        -3.003372        -0.411740
 H         0.733729        -2.314992        -0.166044
 H         3.094658        -0.576108        -2.560110
