19
Iteration:  2072
 C        -0.314306        -0.239013         0.379147
 C         1.291059        -0.053739         0.291367
 C         1.971213         1.308524         0.293124
 O         3.362883         0.986688         0.022476
 C         3.330361        -0.435753        -0.006861
 C         2.328494        -1.035342         0.950886
 C         1.977731        -2.115319        -0.149313
 C         2.222633        -0.820259        -0.919738
 O         2.208627        -0.671859        -2.303064
 H        -0.665645        -0.376079         1.377262
 H        -0.816135         0.649057        -0.155637
 H        -0.487020        -1.238515        -0.173464
 H         1.433919         1.759922        -0.604610
 H         1.952731         1.918633         1.315285
 H         4.330540        -0.757494        -0.361176
 H         2.560601        -1.224651         2.129225
 H         2.696098        -2.892027        -0.286358
 H         0.914735        -2.482773        -0.200639
 H         1.316538        -0.549704        -2.538833
