19
Iteration:  2404charge 0 multiplicity 1
 C        -0.104276        -0.191828         0.378077
 C         1.356357        -0.022115         0.222041
 C         1.911340         1.321497         0.279030
 O         3.335004         1.007411         0.195727
 C         3.400132        -0.373921        -0.045502
 C         2.221079        -1.062302         0.953474
 C         1.959683        -2.113724        -0.146131
 C         2.243481        -0.842054        -0.947459
 O         2.043363        -0.810859        -2.380257
 H        -0.528986         0.673670         0.953238
 H        -0.731670        -0.372814        -0.544972
 H        -0.290925        -1.145918         0.964713
 H         1.427126         1.929957        -0.514865
 H         1.638232         1.824632         1.265321
 H         4.497911        -0.810457        -0.180798
 H         2.236660        -1.358864         2.021718
 H         2.564876        -2.978304        -0.390726
 H         0.878141        -2.405493        -0.179809
 H         2.458667         0.058917        -2.688702
