19
Iteration:  2966
 C        -0.195843        -0.319723         0.253471
 C         1.334668        -0.028021         0.284025
 C         1.997812         1.363093         0.355324
 O         3.407333         1.057752         0.184246
 C         3.355348        -0.361076         0.009293
 C         2.231606        -1.086016         0.925289
 C         2.034106        -2.102880        -0.139506
 C         2.159756        -0.760832        -0.969580
 O         1.965308        -0.857375        -2.355614
 H        -0.590548        -0.216771         1.281412
 H        -0.646502         0.272268        -0.454384
 H        -0.420522        -1.381729        -0.076377
 H         1.674747         1.996939        -0.529093
 H         2.061963         2.001268         1.429071
 H         4.378144        -0.742165        -0.083658
 H         2.304460        -1.072422         1.988836
 H         2.950404        -2.816690        -0.266856
 H         1.019021        -2.471647        -0.239787
 H         2.347967        -0.083266        -2.848320
