19
Iteration:  3741charge 0 multiplicity 1
 C        -0.222324        -0.281793         0.442031
 C         1.320666        -0.131025         0.200271
 C         1.909531         1.228757         0.310517
 O         3.339766         0.974469         0.189340
 C         3.338421        -0.447328        -0.022589
 C         2.351288        -1.046820         0.870953
 C         2.010125        -2.160667        -0.311627
 C         2.149643        -0.757360        -0.923820
 O         2.130511        -0.526774        -2.290782
 H        -0.423380        -1.079967         1.191305
 H        -0.929162         0.587641         1.001420
 H        -0.755759        -0.615648        -0.536525
 H         1.405368         1.777382        -0.423026
 H         1.712964         1.712169         1.331310
 H         4.278919        -0.932077        -0.279916
 H         2.450570        -1.087031         1.953188
 H         2.851771        -2.851260        -0.529603
 H         1.033084        -2.653531        -0.332365
 H         2.621135         0.286465        -2.466760
