19
Iteration:  2842
 C        -0.139148        -0.215120         0.208820
 C         1.373600        -0.104211         0.164300
 C         1.939175         1.357738         0.342697
 O         3.370008         1.047199         0.169569
 C         3.369403        -0.421038        -0.024918
 C         2.268882        -1.079733         0.934430
 C         2.064026        -2.165344        -0.065571
 C         2.179445        -0.872865        -0.917056
 O         1.883385        -0.664975        -2.300160
 H        -0.533025         0.364187         1.028506
 H        -0.528224         0.106807        -0.764513
 H        -0.400244        -1.202420         0.347252
 H         1.614399         2.115630        -0.380461
 H         1.813152         1.769756         1.438242
 H         4.424635        -0.631998        -0.189748
 H         2.312419        -1.133045         2.074649
 H         2.832345        -2.894458        -0.106827
 H         1.122245        -2.769254        -0.113126
 H         2.670690        -0.681763        -2.879367
