19
Iteration:  4776charge 0 multiplicity 1
 C        -0.261166        -0.128524         0.343321
 C         1.293755        -0.114977         0.272562
 C         1.905047         1.321774         0.029115
 O         3.349798         1.092306        -0.000134
 C         3.306705        -0.353387         0.016778
 C         2.322634        -0.925604         1.017121
 C         2.134071        -2.145415         0.017284
 C         2.182786        -0.909864        -0.878638
 O         2.059168        -0.936833        -2.236283
 H        -0.780742        -1.004903        -0.141006
 H        -0.725390        -0.001020         1.330119
 H        -0.591692         0.694570        -0.257249
 H         1.625453         1.980432        -0.904729
 H         1.670666         1.937810         0.942632
 H         4.287913        -0.751625        -0.000211
 H         2.557600        -0.903952         2.091366
 H         2.888554        -2.918516        -0.161101
 H         1.287249        -2.791508        -0.078425
 H         2.683551        -0.512905        -2.770410
