19
Iteration:  2068
 C        -0.320914        -0.215465         0.363887
 C         1.300559        -0.039734         0.307311
 C         1.936264         1.270247         0.264999
 O         3.355424         0.993865         0.005458
 C         3.329979        -0.449150         0.021965
 C         2.325514        -1.068806         0.938836
 C         1.982683        -2.088034        -0.178030
 C         2.243924        -0.816056        -0.897567
 O         2.224748        -0.667076        -2.282496
 H        -0.578755        -0.413093         1.472950
 H        -0.850803         0.594640        -0.013202
 H        -0.497634        -1.167762         0.019291
 H         1.435341         1.662526        -0.572539
 H         2.023030         1.839706         1.121210
 H         4.332703        -0.745567        -0.418060
 H         2.455872        -1.168650         2.006944
 H         2.734342        -2.949035        -0.230111
 H         0.898665        -2.408484        -0.181048
 H         1.255484        -0.435928        -2.555639
