19
Iteration:  1422charge 0 multiplicity 1
 C        -0.073997        -0.080429         0.127528
 C         1.378384         0.020552         0.089758
 C         2.056009         1.282042         0.403520
 O         3.447878         0.885570         0.162377
 C         3.376510        -0.499280        -0.002468
 C         2.277028        -1.011531         0.935691
 C         1.998711        -2.170768         0.042106
 C         2.165354        -0.865574        -0.951391
 O         1.699601        -0.644670        -2.290755
 H        -0.759938         0.488999         0.922970
 H        -0.295655         0.333475        -0.988528
 H        -0.459964        -1.077121         0.195887
 H         1.907433         2.178588        -0.250120
 H         2.075318         1.662384         1.486071
 H         4.356238        -0.810813         0.078654
 H         2.373734        -0.963062         2.013469
 H         2.876613        -2.886846        -0.195545
 H         1.035157        -2.743239         0.063254
 H         2.439600        -0.987925        -2.931008
