19
Iteration:  1781
 C        -0.214980        -0.157452         0.088525
 C         1.317408        -0.108919         0.165560
 C         2.058199         1.275278         0.248292
 O         3.478825         0.963430         0.191466
 C         3.448167        -0.392859         0.063263
 C         2.271465        -1.031074         0.948718
 C         2.060840        -2.203431        -0.126778
 C         2.150997        -0.852383        -0.860505
 O         1.783262        -0.573176        -2.188412
 H        -0.524029         0.577079         0.866410
 H        -0.707029         0.070785        -0.833776
 H        -0.641078        -1.158966         0.296909
 H         1.777667         2.040424        -0.491052
 H         1.799445         1.898218         1.145655
 H         4.438782        -0.830751        -0.224231
 H         2.503307        -1.101617         2.052191
 H         2.806766        -3.021506        -0.044758
 H         1.092088        -2.665382        -0.374084
 H         2.207008        -1.246568        -2.682257
