19
Iteration:  3446charge 0 multiplicity 1
 C        -0.129771        -0.252573         0.386676
 C         1.265087        -0.056217         0.227108
 C         1.930819         1.337713         0.285735
 O         3.349623         1.004975         0.154382
 C         3.296869        -0.418716         0.007654
 C         2.279004        -0.981643         0.910931
 C         2.064812        -2.143491        -0.067054
 C         2.154445        -0.861647        -0.949411
 O         2.105677        -0.749671        -2.401493
 H        -0.634951        -0.756916         1.285873
 H        -0.581719         0.714045         0.273550
 H        -0.642395        -0.757888        -0.571830
 H         1.638534         1.892802        -0.556174
 H         1.784552         1.831631         1.123861
 H         4.379532        -0.763425        -0.319639
 H         2.457472        -1.134105         1.954887
 H         2.892463        -2.949720        -0.201013
 H         1.103925        -2.686879        -0.041272
 H         2.039175         0.190975        -2.538007
