19
Iteration:  1671
 C        -0.338483        -0.025879         0.462896
 C         1.279998        -0.032951         0.085360
 C         2.044022         1.265163         0.338608
 O         3.388940         0.989734         0.093783
 C         3.298204        -0.470564        -0.073795
 C         2.217032        -1.041944         0.969075
 C         2.047626        -2.157780        -0.118970
 C         2.167196        -0.812665        -0.971385
 O         2.244977        -0.804507        -2.331232
 H        -0.433265         0.116402         1.669790
 H        -0.751521         0.894170         0.055806
 H        -0.876959        -0.987909         0.134846
 H         1.704060         2.181636        -0.201338
 H         1.826746         1.596775         1.408490
 H         4.291150        -0.836162        -0.221935
 H         2.222585        -1.310371         2.078263
 H         2.834303        -2.838104        -0.433551
 H         1.111814        -2.727986        -0.096719
 H         1.408246        -0.586623        -2.827802
