19
Iteration:  1037
 C        -0.055401        -0.021062         0.183563
 C         1.425113        -0.094748         0.292211
 C         2.029873         1.229162         0.254856
 O         3.456922         0.913017         0.142278
 C         3.386556        -0.534573        -0.059196
 C         2.292240        -1.152077         0.998141
 C         1.728174        -2.159967        -0.090426
 C         2.142133        -0.875251        -0.905979
 O         1.905381        -0.489617        -2.260565
 H        -0.296021        -0.426503        -0.888997
 H        -0.498825        -0.769882         0.885510
 H        -0.433951         0.981428         0.403676
 H         1.838733         1.849421        -0.665593
 H         1.928973         1.727198         1.249522
 H         4.320234        -1.170074        -0.200570
 H         2.418710        -1.362241         2.047349
 H         2.382141        -3.042964        -0.349849
 H         0.637203        -2.332251         0.009058
 H         2.573818         0.221991        -2.593870
