19
Iteration:  3005
 C        -0.138835        -0.191443         0.126689
 C         1.319072        -0.107879         0.206023
 C         1.988534         1.302683         0.337025
 O         3.302649         1.059351         0.125275
 C         3.317353        -0.401906        -0.075873
 C         2.364021        -1.089881         0.921559
 C         2.110576        -2.257279        -0.005586
 C         2.165672        -0.848814        -0.891542
 O         1.926135        -0.630974        -2.238759
 H        -0.601547         0.325373         0.986574
 H        -0.627394         0.412914        -0.814296
 H        -0.600499        -1.150781         0.109932
 H         1.479946         1.947668        -0.446177
 H         1.810993         1.590961         1.304580
 H         4.352799        -0.777935        -0.351486
 H         2.406394        -1.177109         2.126411
 H         2.935642        -2.884854        -0.054191
 H         1.153648        -2.860117         0.139401
 H         2.562897         0.004207        -2.526848
