19
Iteration:  2152
 C        -0.131719        -0.106162         0.194330
 C         1.349265        -0.022094         0.241817
 C         1.960403         1.338107         0.218094
 O         3.356548         0.975800         0.284481
 C         3.342856        -0.397662        -0.095180
 C         2.361673        -1.174514         0.961257
 C         2.092960        -2.179233        -0.162043
 C         2.106029        -0.800511        -0.874338
 O         1.909027        -0.667070        -2.261572
 H        -0.489274         0.676662         0.867209
 H        -0.599591        -0.075489        -0.811250
 H        -0.491252        -1.108462         0.653212
 H         1.451024         2.012207        -0.493723
 H         1.651914         1.777535         1.242276
 H         4.345102        -0.772807        -0.282897
 H         2.510425        -1.190462         1.970185
 H         2.974453        -2.780185        -0.389962
 H         1.244248        -2.757286        -0.226490
 H         2.227193        -1.460407        -2.618672
