19
Iteration:  1564
 C        -0.156523        -0.035668         0.187208
 C         1.319190        -0.075700         0.238886
 C         2.008898         1.273958         0.325891
 O         3.368925         0.984337         0.124717
 C         3.380918        -0.422896        -0.009471
 C         2.409974        -1.043656         0.954147
 C         1.921101        -2.198390        -0.138159
 C         2.134502        -0.908431        -0.898865
 O         1.934950        -0.722257        -2.263622
 H        -0.588732         0.493106         1.127773
 H        -0.460112         0.529307        -0.663772
 H        -0.766308        -0.912679         0.233929
 H         1.635565         1.956594        -0.472980
 H         1.984249         1.503840         1.388588
 H         4.372269        -0.799220        -0.260930
 H         2.510778        -1.118820         2.070110
 H         2.724610        -2.915747        -0.063769
 H         0.893515        -2.574299        -0.164974
 H         2.665991        -0.281483        -2.809216
