19
Iteration:  4731
 C        -0.212003        -0.174404         0.098744
 C         1.347875        -0.054486         0.130429
 C         1.949274         1.277228         0.287796
 O         3.332424         1.143296         0.039651
 C         3.413044        -0.392831        -0.025725
 C         2.348578        -0.895159         1.019499
 C         2.139557        -2.121281         0.070095
 C         2.175939        -0.937490        -0.832121
 O         1.904437        -0.974018        -2.268453
 H        -0.703271        -1.081863         0.436014
 H        -0.656592         0.636369         0.660006
 H        -0.563695        -0.057425        -0.921820
 H         1.542269         2.009764        -0.527170
 H         1.859917         1.849991         1.205434
 H         4.305230        -0.856131        -0.108607
 H         2.655736        -0.762572         2.128185
 H         2.892741        -2.884774         0.113750
 H         1.325505        -2.744924         0.200904
 H         1.659391        -0.093646        -2.436422
