19
Iteration:  2267charge 0 multiplicity 1
 C        -0.189834        -0.119370         0.390087
 C         1.382644        -0.070760         0.081270
 C         1.856974         1.292356         0.360218
 O         3.412035         0.987502         0.182884
 C         3.318122        -0.398209         0.034478
 C         2.264276        -0.988167         0.907118
 C         2.103950        -2.094868        -0.217900
 C         2.200373        -0.834845        -0.981629
 O         2.018097        -0.928338        -2.318889
 H        -0.268942         0.039705         1.532798
 H        -0.576255         0.814543        -0.037057
 H        -0.919229        -0.817801        -0.001836
 H         1.677414         2.190658        -0.331404
 H         1.593647         1.665385         1.341121
 H         4.307366        -0.764525         0.004876
 H         2.149632        -0.944718         2.063910
 H         2.985022        -2.792341        -0.319600
 H         1.069933        -2.598457        -0.335669
 H         1.920958        -0.037402        -2.553675
