19
Iteration:  3688
 C        -0.208700        -0.151692         0.168414
 C         1.363864        -0.163428         0.216823
 C         1.922049         1.227099         0.432806
 O         3.304553         0.963583         0.194320
 C         3.382896        -0.364706        -0.010266
 C         2.394994        -1.088077         0.910242
 C         2.139038        -2.104501        -0.243168
 C         2.204889        -0.809938        -0.910792
 O         1.863243        -0.663029        -2.251503
 H        -0.603447        -0.948864        -0.475226
 H        -0.481848        -0.354554         1.140723
 H        -0.522812         0.812178        -0.279547
 H         1.422253         2.066320        -0.127740
 H         1.791565         1.570082         1.532955
 H         4.370543        -0.732655        -0.154893
 H         2.585509        -1.453124         1.935411
 H         2.933146        -2.676028        -0.569674
 H         1.164258        -2.595023        -0.162300
 H         2.316259         0.111346        -2.613242
