19
Iteration:  4302
 C        -0.248808        -0.140390         0.529026
 C         1.279766        -0.061500         0.228409
 C         1.837049         1.258191         0.220887
 O         3.306569         0.994645         0.086119
 C         3.269615        -0.416407        -0.011251
 C         2.297176        -1.119461         0.920556
 C         2.159585        -2.229433        -0.184428
 C         2.192610        -0.837710        -0.960546
 O         2.163501        -0.610093        -2.335451
 H        -0.500624         0.329573         1.613549
 H        -0.803155         0.485973        -0.260284
 H        -0.475589        -1.231088         0.596557
 H         1.491494         1.887133        -0.661763
 H         1.483190         1.892416         1.183372
 H         4.307115        -0.859463        -0.202826
 H         2.278050        -1.243299         1.941768
 H         3.084056        -2.866234        -0.404571
 H         1.259965        -2.807722        -0.029184
 H         2.962684        -0.031021        -2.628231
