19
Iteration:  4646
 C        -0.173677        -0.069457         0.428759
 C         1.271899        -0.110037         0.195069
 C         1.804235         1.279892         0.069081
 O         3.294021         1.011541         0.011091
 C         3.345601        -0.305660        -0.054221
 C         2.288929        -1.022872         0.986815
 C         2.152941        -2.234770        -0.019103
 C         2.128055        -0.906400        -0.899444
 O         2.134713        -0.760571        -2.233022
 H        -0.288135         0.129385         1.615841
 H        -0.711257         0.855972         0.036380
 H        -0.716121        -0.934744        -0.067316
 H         1.459012         1.768606        -0.825802
 H         1.655989         1.932330         0.946115
 H         4.268313        -0.875409        -0.145349
 H         2.373944        -0.961946         2.089820
 H         3.043831        -2.856984        -0.142826
 H         1.198796        -2.795161         0.215031
 H         3.089695        -0.699349        -2.583104
