19
Iteration:   902
 C        -0.165650        -0.056212         0.065861
 C         1.358572        -0.063576         0.137600
 C         2.149833         1.288328         0.231121
 O         3.590758         0.921149         0.127120
 C         3.411549        -0.505103         0.115755
 C         2.250509        -1.118525         0.963718
 C         1.986470        -2.214493        -0.043189
 C         2.077528        -0.861001        -0.922614
 O         1.733904        -0.572389        -2.210595
 H        -0.650883         0.907413         0.307599
 H        -0.613758        -0.296285        -0.895204
 H        -0.722385        -0.717455         0.865712
 H         1.842838         2.090111        -0.459715
 H         1.980473         1.535245         1.338097
 H         4.337751        -1.166035         0.100411
 H         2.257438        -1.140359         2.142269
 H         2.792300        -2.900296        -0.224678
 H         1.027858        -2.797195        -0.066562
 H         1.785473         0.417101        -2.275750
