19
Iteration:  1031
 C        -0.054417        -0.021563         0.249974
 C         1.377656        -0.106464         0.287158
 C         2.059385         1.246881         0.242627
 O         3.428478         0.849262         0.122597
 C         3.418755        -0.515217        -0.083251
 C         2.239568        -1.125367         0.962555
 C         1.767534        -2.152856        -0.103219
 C         2.114272        -0.839045        -0.885605
 O         1.968228        -0.510493        -2.274144
 H        -0.316939        -0.285585        -0.719107
 H        -0.551787        -0.699448         1.044531
 H        -0.433060         0.966081         0.512134
 H         1.733471         1.835845        -0.641880
 H         1.821034         1.845514         1.122613
 H         4.330761        -1.096058        -0.063799
 H         2.416160        -1.390220         2.041524
 H         2.304992        -3.054301        -0.397360
 H         0.728447        -2.509277        -0.093516
 H         2.600902         0.276304        -2.346030
