19
Iteration:  1389
 C        -0.227905        -0.043695         0.268260
 C         1.340717        -0.011337         0.231926
 C         2.098870         1.351732         0.313461
 O         3.513004         0.960174         0.200409
 C         3.370279        -0.432096        -0.055006
 C         2.316303        -1.082858         0.879483
 C         1.895653        -2.151832        -0.152219
 C         2.149822        -0.835967        -0.888287
 O         1.889257        -0.883477        -2.261667
 H        -0.886329         0.110007         1.246546
 H        -0.569220         0.928382        -0.334958
 H        -0.558943        -0.878757        -0.344104
 H         1.760494         1.984490        -0.546984
 H         1.860820         1.944067         1.273695
 H         4.327544        -0.794451        -0.095979
 H         2.405809        -1.217719         1.939893
 H         2.628327        -2.906899        -0.627768
 H         0.854651        -2.530410        -0.008783
 H         2.472586        -0.255035        -2.610270
