19
Iteration:  1365charge 0 multiplicity 1
 C        -0.124335         0.022462         0.423002
 C         1.307802        -0.033848         0.185116
 C         2.067892         1.283055         0.231599
 O         3.407775         0.931741         0.111657
 C         3.277632        -0.513648        -0.000275
 C         2.235763        -1.072679         0.974545
 C         1.886119        -2.128962        -0.115177
 C         2.103196        -0.854815        -0.925412
 O         2.143595        -0.808000        -2.379707
 H        -0.365646        -0.081030         1.611658
 H        -0.540164         1.047377         0.336077
 H        -0.781634        -0.644816        -0.233352
 H         1.670977         1.852427        -0.690806
 H         1.897778         1.959729         1.150384
 H         4.298039        -0.845922        -0.119580
 H         2.436228        -1.244229         2.037849
 H         2.766957        -2.822275        -0.160589
 H         0.930168        -2.621999        -0.311674
 H         1.876284         0.138503        -2.540841
