19
Iteration:  2492
 C        -0.216775        -0.147403         0.193060
 C         1.319936        -0.134145         0.225244
 C         1.896310         1.306193         0.269141
 O         3.371150         1.062794         0.052416
 C         3.358857        -0.430163        -0.031345
 C         2.310549        -1.098632         0.911764
 C         2.072293        -2.256375        -0.018727
 C         2.222502        -0.926894        -0.808397
 O         1.950567        -0.623285        -2.221590
 H        -0.558952         0.015916         1.203770
 H        -0.457347         0.830588        -0.267996
 H        -0.711513        -0.925458        -0.394057
 H         1.447917         1.942041        -0.511854
 H         1.842681         2.003041         1.083955
 H         4.505718        -0.691378        -0.057619
 H         2.628211        -1.177261         1.982068
 H         2.913887        -2.870196        -0.212909
 H         1.022846        -2.611741        -0.270007
 H         2.703281        -0.154912        -2.656540
