19
Iteration:  4055
 C        -0.206340        -0.155701         0.188547
 C         1.315826        -0.176393         0.187909
 C         1.936087         1.250393         0.441319
 O         3.363460         1.045617         0.214807
 C         3.336925        -0.353455         0.031038
 C         2.371782        -1.170194         0.922055
 C         2.232355        -2.221720        -0.258981
 C         2.102110        -0.831800        -0.928165
 O         1.866219        -0.602681        -2.287471
 H        -0.664744        -1.159914         0.392845
 H        -0.340532         0.609235         0.945766
 H        -0.631406         0.276256        -0.720287
 H         1.467365         1.919105        -0.395797
 H         1.743955         1.769922         1.464165
 H         4.336934        -0.673041        -0.238688
 H         2.486453        -1.469083         2.001670
 H         3.189411        -2.677648        -0.437169
 H         1.410267        -2.885046        -0.195212
 H         2.309586         0.256254        -2.579370
