19
Iteration:  4414charge 0 multiplicity 1
 C        -0.157981        -0.125095         0.276179
 C         1.373261        -0.113632         0.212700
 C         1.881440         1.253601         0.275416
 O         3.340337         1.070081         0.120613
 C         3.348464        -0.325151        -0.012000
 C         2.348688        -1.092360         0.941669
 C         2.138617        -2.166400        -0.103295
 C         2.120733        -0.879063        -0.900449
 O         1.997669        -0.811751        -2.294172
 H        -0.619642        -1.038077         0.107668
 H        -0.626565         0.500111         1.120238
 H        -0.565764         0.538097        -0.544107
 H         1.584048         1.953242        -0.500643
 H         1.480862         1.695890         1.281666
 H         4.310980        -0.718355        -0.050694
 H         2.390700        -0.993446         2.088084
 H         3.107581        -2.797810        -0.186491
 H         1.230217        -2.795160        -0.152166
 H         1.718657         0.040323        -2.593138
