19
Iteration:  2518
 C        -0.185177        -0.298352         0.303620
 C         1.307028        -0.023252         0.163625
 C         1.933056         1.330951         0.166979
 O         3.397650         0.932213         0.119779
 C         3.327774        -0.469145         0.044849
 C         2.331352        -1.037767         0.978099
 C         2.062975        -2.098414        -0.029539
 C         2.107309        -0.804723        -0.836580
 O         1.990959        -0.623029        -2.339429
 H        -0.636905        -0.313613         1.428278
 H        -0.705838         0.434634        -0.280191
 H        -0.380804        -1.166529        -0.296844
 H         1.713720         2.084223        -0.576721
 H         1.840649         1.903276         1.153511
 H         4.218724        -0.811677        -0.284536
 H         2.210195        -1.196014         2.035630
 H         2.941470        -2.732689        -0.237115
 H         1.148244        -2.601774        -0.115286
 H         2.871069        -0.587049        -2.726234
