19
Iteration:  3307charge 0 multiplicity 1
 C        -0.241779        -0.392495         0.231996
 C         1.331718        -0.051909         0.154622
 C         1.972525         1.374400         0.321495
 O         3.470590         1.062562         0.222505
 C         3.338300        -0.367233        -0.098309
 C         2.344839        -1.026168         0.943509
 C         2.013869        -2.155593        -0.048047
 C         2.137945        -0.858359        -0.946342
 O         1.971873        -0.706713        -2.291584
 H        -0.749304        -0.257423         1.284893
 H        -0.813271         0.374490        -0.388557
 H        -0.382543        -1.420416        -0.314817
 H         1.664826         2.132046        -0.486381
 H         1.826107         1.642516         1.435162
 H         4.322502        -0.922350        -0.292970
 H         2.345421        -0.996571         2.000606
 H         2.790433        -2.902052        -0.073785
 H         0.942999        -2.557271         0.010484
 H         2.262389         0.092531        -2.698146
