19
Iteration:  4568charge 0 multiplicity 1
 C        -0.165923        -0.293353         0.137142
 C         1.360705        -0.031868         0.174799
 C         1.978509         1.343805         0.230013
 O         3.401696         1.094296         0.167910
 C         3.407901        -0.326746        -0.022374
 C         2.392614        -0.973520         0.975240
 C         2.074300        -2.130341         0.007537
 C         2.149361        -0.858594        -0.891253
 O         1.794654        -0.784288        -2.241972
 H        -1.003727         0.459932        -0.120025
 H        -0.182658        -0.848680        -0.842083
 H        -0.533734        -0.999257         0.963468
 H         1.595888         1.862475        -0.635610
 H         1.801509         1.938376         1.114418
 H         4.312189        -0.807231        -0.103985
 H         2.432458        -1.066900         2.137407
 H         2.741156        -2.960509         0.042767
 H         1.122601        -2.575818         0.111083
 H         2.255106        -1.552793        -2.733632
