19
Iteration:  4565charge 0 multiplicity 1
 C        -0.169403        -0.294511         0.119811
 C         1.354715        -0.052472         0.190772
 C         1.989793         1.322667         0.222654
 O         3.399230         1.116308         0.165040
 C         3.411476        -0.350986        -0.019329
 C         2.379245        -0.983207         0.994681
 C         2.086417        -2.125188        -0.000522
 C         2.152312        -0.847618        -0.896509
 O         1.784945        -0.787560        -2.238556
 H        -1.076944         0.536109        -0.129537
 H        -0.210104        -0.844193        -0.868836
 H        -0.569489        -0.869936         1.032345
 H         1.610452         1.925386        -0.710980
 H         1.830651         1.901606         1.136589
 H         4.460582        -0.735987        -0.094560
 H         2.440683        -1.101694         2.106910
 H         2.889593        -2.924951         0.095346
 H         1.078233        -2.525434         0.113338
 H         2.195932        -1.485503        -2.760892
