19
Iteration:  4975
 C        -0.185329        -0.088585         0.405465
 C         1.290252        -0.134817         0.218782
 C         1.883693         1.283581         0.098732
 O         3.196258         1.037851        -0.109428
 C         3.364612        -0.367929        -0.032239
 C         2.251727        -0.989646         1.017505
 C         2.121456        -2.233667         0.029791
 C         2.188420        -0.909281        -0.819334
 O         2.161880        -0.768422        -2.267801
 H        -0.365429        -0.501479         1.406640
 H        -0.519398         0.946448         0.331257
 H        -0.654129        -0.696465        -0.411469
 H         1.466753         1.731725        -0.761558
 H         1.660118         1.990950         0.890663
 H         4.367201        -0.954377         0.029086
 H         2.231270        -0.937018         2.034969
 H         3.073187        -2.665195        -0.119455
 H         1.149290        -2.728019         0.027693
 H         2.931734        -0.070377        -2.347109
