19
Iteration:  3480charge 0 multiplicity 1
 C        -0.201881        -0.058122         0.237605
 C         1.259744        -0.141312         0.106159
 C         1.906384         1.251237         0.301285
 O         3.369268         1.064282         0.141971
 C         3.369097        -0.368308         0.092050
 C         2.397069        -1.102901         0.949245
 C         2.217641        -2.168880        -0.177553
 C         2.139800        -0.863548        -0.877489
 O         1.947380        -0.786819        -2.239022
 H        -0.759727        -0.205809         1.280027
 H        -0.344135         0.953327        -0.089570
 H        -0.816699        -0.764367        -0.548800
 H         1.549737         1.904907        -0.459459
 H         1.640541         1.743158         1.123596
 H         4.459730        -0.797633        -0.154853
 H         2.379643        -1.265893         2.000781
 H         3.168984        -2.763914        -0.431692
 H         1.214096        -2.736245        -0.279689
 H         1.445259         0.058055        -2.382302
