19
Iteration:  1867
 C        -0.082257        -0.167908         0.497030
 C         1.309467        -0.038788         0.109479
 C         1.951153         1.308715         0.232704
 O         3.356827         0.976615         0.179598
 C         3.304862        -0.478111        -0.015568
 C         2.153915        -0.976109         0.896696
 C         1.986807        -2.110793        -0.108630
 C         2.088621        -0.876850        -0.956586
 O         2.250826        -0.748175        -2.371847
 H        -0.136351        -0.136405         1.587877
 H        -0.808450         0.593911        -0.000919
 H        -0.521566        -1.290327         0.215566
 H         1.633781         2.064173        -0.589687
 H         1.781609         1.763938         1.263011
 H         4.319756        -0.953076        -0.083312
 H         2.093013        -0.992743         2.100099
 H         2.835389        -2.957015        -0.295029
 H         0.877302        -2.457744        -0.122005
 H         1.715650        -0.065430        -2.790332
