19
Iteration:   470
 C        -0.136271         0.091243         0.408627
 C         1.381242         0.002504         0.151258
 C         2.064506         1.382012         0.030045
 O         3.533299         0.796753         0.070441
 C         3.345212        -0.569676         0.117918
 C         2.197437        -1.159712         1.004785
 C         1.827291        -2.194917        -0.151291
 C         2.004307        -0.851545        -0.874799
 O         2.108870        -0.541343        -2.213996
 H        -0.232888         0.774168         1.270454
 H        -0.813582         0.394332        -0.481635
 H        -0.594838        -0.820210         0.720235
 H         1.879712         1.752871        -0.953649
 H         1.938007         2.122073         0.743509
 H         4.313717        -1.200978        -0.030758
 H         2.181571        -1.457350         2.081649
 H         2.601273        -2.998060        -0.306257
 H         0.811090        -2.718829        -0.250456
 H         1.501876        -1.180550        -2.655135
