19
Iteration:  1757charge 0 multiplicity 1
 C        -0.088661        -0.224992         0.167023
 C         1.356141         0.030617         0.196264
 C         2.066064         1.357535         0.222159
 O         3.465812         0.885928         0.213309
 C         3.326942        -0.434603         0.105267
 C         2.257278        -1.043532         0.990750
 C         2.039295        -2.165825        -0.121521
 C         2.134212        -0.829646        -0.901312
 O         1.760886        -0.630791        -2.295061
 H        -0.669833         0.454948         0.652270
 H        -0.529184        -0.287563        -0.832260
 H        -0.391988        -1.291655         0.464214
 H         1.807739         1.968053        -0.689461
 H         1.861846         2.156099         0.963802
 H         4.303849        -0.906226        -0.041992
 H         2.304977        -1.309273         2.122204
 H         2.949584        -2.856125        -0.206355
 H         1.161849        -2.893869        -0.068044
 H         2.525671        -0.239192        -2.874819
