19
Iteration:  2569
 C        -0.208088        -0.087481         0.349497
 C         1.339722        -0.094383         0.188419
 C         1.901129         1.303676         0.292637
 O         3.279955         0.997851         0.176851
 C         3.288199        -0.411672         0.013644
 C         2.358688        -1.089854         0.929067
 C         2.078880        -2.138720        -0.164125
 C         2.219130        -0.834482        -0.937317
 O         2.047121        -0.691152        -2.369322
 H        -0.162614         0.386141         1.320104
 H        -0.818116         0.348566        -0.467977
 H        -0.661303        -1.044751         0.505897
 H         1.516549         1.855957        -0.602081
 H         1.756331         1.802357         1.251193
 H         4.370621        -0.742518         0.076485
 H         2.491735        -1.219364         2.006076
 H         2.894688        -2.826987        -0.270972
 H         1.130502        -2.705784        -0.016405
 H         2.566591        -1.370816        -2.712473
