19
Iteration:   221charge 0 multiplicity 1
 C        -0.163171         0.171967         0.125228
 C         1.375893         0.010016         0.149030
 C         2.206516         1.351937         0.369129
 O         3.563762         0.825958         0.201634
 C         3.417005        -0.569097         0.043020
 C         2.246999        -1.040511         0.986617
 C         1.934220        -2.209815         0.026529
 C         2.107280        -0.944846        -1.004135
 O         1.670645        -0.668287        -2.339642
 H        -0.587343         0.950001         0.797742
 H        -0.433890         0.447010        -0.976672
 H        -0.637690        -0.747250         0.310999
 H         1.988090         2.042991        -0.465630
 H         2.098966         1.821040         1.390321
 H         4.457494        -1.109134        -0.067959
 H         2.055746        -1.156956         2.058059
 H         2.662384        -2.966390        -0.156613
 H         0.965219        -2.690018        -0.003883
 H         2.234311        -1.203431        -2.942194
