19
Iteration:  3116
 C        -0.183824        -0.161205         0.325868
 C         1.329291        -0.093071         0.227426
 C         1.951654         1.293186         0.361323
 O         3.310546         1.098249         0.114505
 C         3.306224        -0.339004        -0.003251
 C         2.225960        -1.107164         0.919563
 C         2.106797        -2.147076        -0.155578
 C         2.170769        -0.841615        -0.950659
 O         2.070404        -0.871834        -2.327769
 H        -0.496634         0.226759         1.305345
 H        -0.559943         0.627144        -0.436913
 H        -0.564062        -1.188208         0.088645
 H         1.594309         2.068931        -0.383815
 H         1.889174         1.878299         1.270559
 H         4.332012        -0.689814        -0.014980
 H         2.302321        -1.273230         2.090278
 H         2.974348        -2.753962        -0.356758
 H         1.235110        -2.724137        -0.279818
 H         2.366695         0.098171        -2.492680
