19
Iteration:  3358
 C        -0.258571        -0.077960         0.265097
 C         1.335993        -0.116005         0.165489
 C         1.918889         1.242905         0.256872
 O         3.315270         1.070782         0.149818
 C         3.406898        -0.337889        -0.008122
 C         2.302601        -1.095363         0.918845
 C         2.188750        -2.248180        -0.081162
 C         2.200135        -0.950617        -0.882620
 O         1.904702        -0.651860        -2.246621
 H        -0.555408        -0.598881         1.176248
 H        -0.552610         0.936391         0.121322
 H        -0.776822        -0.637017        -0.602506
 H         1.577803         1.746115        -0.599538
 H         1.703364         1.881382         1.193228
 H         4.447843        -0.744339         0.019176
 H         2.529393        -1.128361         1.982228
 H         3.029481        -2.966389        -0.379541
 H         1.312390        -2.757604        -0.267325
 H         2.675015        -0.286849        -2.626093
