19
Iteration:  2102charge 0 multiplicity 1
 C        -0.109004        -0.167593         0.245780
 C         1.349725        -0.040174         0.056105
 C         1.987852         1.290812         0.419405
 O         3.375263         1.009364         0.195435
 C         3.322625        -0.388044        -0.034329
 C         2.292210        -0.989488         0.917185
 C         2.059773        -2.191719        -0.025256
 C         2.111241        -0.842450        -0.980544
 O         2.007881        -0.680572        -2.315544
 H        -0.365942        -0.048428         1.347606
 H        -0.760615         0.419182        -0.365297
 H        -0.339115        -1.099095        -0.161591
 H         1.487156         1.987634        -0.191887
 H         1.671291         1.653797         1.363957
 H         4.303155        -0.809836        -0.461559
 H         2.380822        -1.124629         2.063044
 H         2.923870        -2.899734        -0.169674
 H         1.086936        -2.842060        -0.014059
 H         1.369339        -1.393780        -2.593785
