19
Iteration:  3887
 C        -0.106645        -0.424863         0.225350
 C         1.363236        -0.099200         0.186583
 C         1.978163         1.242754         0.477033
 O         3.421373         0.954223         0.269859
 C         3.376198        -0.405630        -0.037363
 C         2.275610        -1.135079         0.908917
 C         2.007609        -2.084706        -0.224939
 C         2.118017        -0.701988        -0.981784
 O         1.901595        -0.471896        -2.335089
 H        -0.790429         0.353877         0.742525
 H        -0.476952        -0.845713        -0.761827
 H        -0.301323        -1.358323         0.858606
 H         1.720076         1.869866        -0.285413
 H         1.874141         1.736389         1.475776
 H         4.437998        -0.835749         0.026003
 H         2.338104        -1.258215         2.003607
 H         2.763150        -2.755961        -0.608480
 H         1.060247        -2.630167        -0.370559
 H         2.113739         0.467066        -2.603749
