19
Iteration:  3069
 C        -0.171281        -0.293285         0.415110
 C         1.320081        -0.095920         0.178452
 C         1.930164         1.320997         0.270346
 O         3.341387         1.047847         0.173162
 C         3.331599        -0.415561         0.011622
 C         2.257335        -0.968775         0.943329
 C         1.981004        -2.184222        -0.119836
 C         2.172541        -0.819212        -0.979037
 O         2.140165        -0.741719        -2.388896
 H        -0.427757         0.358758         1.220490
 H        -0.777224         0.024401        -0.462452
 H        -0.327105        -1.278524         0.686591
 H         1.640708         2.015853        -0.557288
 H         1.768532         2.017755         1.167385
 H         4.377055        -0.827122        -0.145306
 H         2.216141        -1.061656         2.060575
 H         2.666123        -2.957288        -0.163744
 H         0.949132        -2.674239        -0.092572
 H         2.408831         0.102038        -2.828502
