19
Iteration:   106charge 0 multiplicity 1
 C        -0.134370         0.133982         0.433739
 C         1.372531         0.014245         0.273767
 C         2.108114         1.377819         0.293220
 O         3.489334         0.873085         0.136694
 C         3.364132        -0.527126        -0.089234
 C         2.184445        -1.097030         0.916004
 C         1.706006        -2.097787        -0.204639
 C         2.132294        -0.857484        -0.901909
 O         2.035276        -0.878216        -2.319145
 H        -0.391922         0.554397         1.413218
 H        -0.488185         0.799880        -0.319101
 H        -0.755685        -0.797211         0.271532
 H         1.920965         2.076909        -0.657750
 H         2.037237         1.858603         1.311196
 H         4.343815        -0.933365        -0.272637
 H         2.288772        -1.382704         2.023298
 H         2.360442        -3.004533        -0.338786
 H         0.642484        -2.439886        -0.374983
 H         2.905091        -0.868772        -2.710580
