19
Iteration:  2344charge 0 multiplicity 1
 C        -0.195498        -0.192865         0.231599
 C         1.344619        -0.118688         0.208733
 C         1.945175         1.340294         0.259855
 O         3.364147         1.050326        -0.022283
 C         3.330640        -0.473685         0.045486
 C         2.244069        -1.056024         0.964246
 C         2.107389        -2.293552        -0.067466
 C         2.190563        -0.887799        -0.876109
 O         1.952925        -0.566616        -2.240359
 H        -0.512978         0.430670         1.078887
 H        -0.446090         0.276344        -0.705777
 H        -0.714745        -1.069684         0.487753
 H         1.659816         2.084492        -0.491414
 H         2.045422         1.692244         1.248211
 H         4.247921        -0.888600         0.069530
 H         2.425012        -1.258618         2.037707
 H         2.885813        -3.093373        -0.298237
 H         1.088767        -2.687634         0.107455
 H         2.692374         0.112409        -2.456758
