19
Iteration:   101charge 0 multiplicity 1
 C        -0.135176         0.126718         0.433154
 C         1.368226         0.065036         0.242897
 C         2.110926         1.374077         0.290998
 O         3.491664         0.862893         0.137863
 C         3.377457        -0.544023        -0.075716
 C         2.190590        -1.120390         0.909025
 C         1.713920        -2.092727        -0.205489
 C         2.137416        -0.819798        -0.925117
 O         2.005025        -0.894430        -2.288876
 H        -0.484666         0.580931         1.373843
 H        -0.560405         0.748109        -0.443737
 H        -0.565225        -0.837063         0.269238
 H         1.799913         1.979666        -0.461001
 H         2.023049         1.866716         1.235909
 H         4.391123        -1.104598        -0.060562
 H         2.349568        -1.364747         1.921462
 H         2.386369        -2.904920        -0.416651
 H         0.708512        -2.436159        -0.277079
 H         2.898027        -0.749233        -2.684992
