19
Iteration:  2154
 C        -0.132320        -0.125864         0.192142
 C         1.352072        -0.040669         0.226022
 C         1.958389         1.348683         0.217892
 O         3.347900         0.955780         0.285339
 C         3.333278        -0.404991        -0.094949
 C         2.364337        -1.147645         0.955219
 C         2.096094        -2.171016        -0.149434
 C         2.117130        -0.798318        -0.893764
 O         1.909341        -0.652315        -2.242938
 H        -0.524912         0.724672         0.908962
 H        -0.590540        -0.047486        -0.779655
 H        -0.523543        -1.045788         0.695881
 H         1.420684         2.020961        -0.555368
 H         1.724104         1.752271         1.247685
 H         4.395563        -0.798148        -0.325382
 H         2.519941        -1.219928         1.992049
 H         2.987599        -2.810133        -0.359809
 H         1.177339        -2.752631        -0.201716
 H         2.280739        -1.445705        -2.655031
