19
Iteration:  1263
 C        -0.104098         0.072604         0.121860
 C         1.358392        -0.020396         0.088467
 C         2.099663         1.247265         0.403776
 O         3.541792         0.945667         0.231392
 C         3.418959        -0.466791         0.059333
 C         2.246203        -1.064261         0.937205
 C         1.977239        -2.163044        -0.047994
 C         2.120557        -0.869954        -0.994493
 O         1.683022        -0.701805        -2.302660
 H        -0.529946         0.882866         0.825602
 H        -0.585648         0.070204        -0.864772
 H        -0.431853        -1.025629         0.479247
 H         1.936062         2.055845        -0.405673
 H         1.870298         1.563465         1.430086
 H         4.485099        -0.912122        -0.087900
 H         2.435731        -1.105609         2.023927
 H         2.823692        -2.778759        -0.212966
 H         1.112195        -2.819802         0.043752
 H         1.933207        -1.502863        -2.830057
