19
Iteration:  3609
 C        -0.211473        -0.118166         0.447346
 C         1.306447        -0.167923         0.243266
 C         1.969629         1.271266         0.275276
 O         3.300231         1.036076         0.161768
 C         3.260392        -0.361259        -0.006616
 C         2.277487        -1.119938         0.879272
 C         2.132244        -2.255519        -0.236000
 C         2.138367        -0.865703        -0.938236
 O         2.102478        -0.598774        -2.320296
 H        -0.602008         0.545946        -0.276223
 H        -0.497346        -1.117848         0.255081
 H        -0.470439         0.042731         1.501954
 H         1.627480         1.706562        -0.677253
 H         1.623699         1.775537         1.264616
 H         4.371431        -0.707437        -0.118316
 H         2.445706        -1.231995         1.926809
 H         2.902655        -3.026025        -0.436111
 H         1.214557        -2.720447        -0.349922
 H         2.514701         0.292421        -2.450048
