19
Iteration:  2853
 C        -0.127061        -0.330939         0.238423
 C         1.307850         0.009205         0.201862
 C         1.950043         1.368113         0.380943
 O         3.358999         0.975113         0.130169
 C         3.391933        -0.377256        -0.013529
 C         2.273830        -1.000445         0.904830
 C         1.981418        -2.260618        -0.023838
 C         2.225524        -0.849955        -1.021135
 O         1.957982        -0.649443        -2.332580
 H        -0.405649         0.235501         1.105921
 H        -0.716285         0.084543        -0.600519
 H        -0.391756        -1.280189         0.444369
 H         1.559030         2.078547        -0.364676
 H         1.902614         1.903528         1.511922
 H         4.371550        -0.797462        -0.261996
 H         2.182245        -0.993342         2.075411
 H         2.761089        -2.950294        -0.072823
 H         0.939655        -2.631789         0.230766
 H         2.734366        -0.407101        -2.769918
