19
Iteration:   226charge 0 multiplicity 1
 C        -0.164496         0.191710         0.124768
 C         1.385413         0.019275         0.161735
 C         2.228278         1.325292         0.385135
 O         3.536752         0.823123         0.159042
 C         3.373232        -0.554585         0.081957
 C         2.201990        -1.076579         0.983369
 C         1.975613        -2.183448        -0.020260
 C         2.130229        -0.926856        -0.981386
 O         1.679066        -0.703513        -2.348078
 H        -0.528124         1.013466         0.745414
 H        -0.452337         0.471513        -0.863484
 H        -0.676513        -0.785887         0.487233
 H         2.078015         2.113438        -0.368633
 H         2.166694         1.802395         1.347705
 H         4.330394        -1.054044         0.132565
 H         2.215189        -1.134189         2.144275
 H         2.820414        -2.926589        -0.256786
 H         0.905260        -2.566517        -0.038851
 H         2.173644        -1.241355        -3.050771
