19
Iteration:  1035charge 0 multiplicity 1
 C        -0.053023        -0.026292         0.210315
 C         1.406953        -0.103809         0.294480
 C         2.035261         1.236186         0.244177
 O         3.443680         0.892324         0.136037
 C         3.407811        -0.524262        -0.071319
 C         2.272850        -1.141496         0.990962
 C         1.737404        -2.159974        -0.091949
 C         2.133170        -0.864038        -0.899781
 O         1.929605        -0.491567        -2.267685
 H        -0.272890        -0.404014        -0.843994
 H        -0.455310        -0.674724         0.868564
 H        -0.440567         1.009858         0.462890
 H         1.834466         1.816406        -0.629874
 H         1.885724         1.756079         1.227654
 H         4.282820        -1.164533        -0.145846
 H         2.417873        -1.377323         2.024036
 H         2.338366        -3.018742        -0.374073
 H         0.666400        -2.396564        -0.023002
 H         2.538276         0.193205        -2.502316
