19
Iteration:  3303
 C        -0.238054        -0.379067         0.256530
 C         1.330093        -0.065923         0.138897
 C         1.983755         1.360261         0.326781
 O         3.455889         1.045061         0.205995
 C         3.336672        -0.358137        -0.085635
 C         2.334840        -1.026916         0.926604
 C         2.022210        -2.127441        -0.014284
 C         2.127205        -0.856246        -0.952665
 O         1.989987        -0.716471        -2.318558
 H        -0.772661        -0.236594         1.164839
 H        -0.765891         0.270265        -0.359965
 H        -0.412729        -1.366495        -0.203874
 H         1.660713         2.121114        -0.373539
 H         1.802018         1.663929         1.488844
 H         4.253605        -0.889202        -0.235873
 H         2.306669        -1.049051         2.029207
 H         2.793473        -2.930903        -0.177181
 H         1.053169        -2.463630        -0.010711
 H         2.245310         0.214090        -2.599545
