19
Iteration:  1391
 C        -0.218674        -0.053748         0.248221
 C         1.336039        -0.016477         0.218346
 C         2.106794         1.332357         0.327558
 O         3.525102         0.980176         0.207508
 C         3.368094        -0.431298        -0.049996
 C         2.317698        -1.075804         0.884478
 C         1.893779        -2.147665        -0.143081
 C         2.125580        -0.838043        -0.895276
 O         1.865548        -0.879103        -2.263387
 H        -0.851520         0.095518         1.125453
 H        -0.524183         0.928763        -0.351564
 H        -0.585206        -0.932949        -0.267239
 H         1.800985         1.999481        -0.482971
 H         1.922378         1.951635         1.242279
 H         4.411868        -0.765051        -0.099341
 H         2.451812        -1.204003         1.957420
 H         2.639500        -2.923115        -0.563673
 H         0.845827        -2.561331        -0.067028
 H         2.540527        -0.298788        -2.599659
