19
Iteration:   571
 C        -0.206928         0.103264         0.196967
 C         1.313030         0.001815         0.169975
 C         2.178395         1.318625         0.311494
 O         3.590417         0.844189         0.087291
 C         3.268292        -0.513206         0.030100
 C         2.244710        -1.057593         0.964019
 C         1.999650        -2.165865        -0.075097
 C         2.009145        -0.859034        -0.916723
 O         1.865823        -0.804085        -2.270224
 H        -0.531068         0.312282         1.201268
 H        -0.596383         1.066497        -0.317342
 H        -0.715925        -0.745228        -0.221542
 H         2.070727         2.136027        -0.402188
 H         2.095810         1.692811         1.300953
 H         4.170183        -1.234216        -0.048077
 H         2.334536        -1.183376         2.042329
 H         2.976610        -2.662384        -0.218596
 H         1.183389        -2.917289        -0.067377
 H         2.088833         0.093560        -2.437208
