19
Iteration:   761charge 0 multiplicity 1
 C        -0.139213        -0.041271         0.351274
 C         1.323507        -0.042139         0.263755
 C         2.094986         1.350457         0.190034
 O         3.499996         0.908686         0.060038
 C         3.317117        -0.553296         0.069284
 C         2.231634        -1.066155         0.961696
 C         1.854691        -2.137814        -0.122138
 C         2.098545        -0.884953        -0.887650
 O         1.987187        -0.681469        -2.332965
 H        -0.506755        -0.394130         1.406788
 H        -0.413018         0.955770         0.149506
 H        -0.647113        -0.830498        -0.365031
 H         1.863052         1.834921        -0.775945
 H         1.972056         2.003457         1.013173
 H         4.360622        -0.992619        -0.114493
 H         2.378430        -1.259320         2.094547
 H         2.575853        -2.926429        -0.268714
 H         0.833801        -2.599612        -0.108019
 H         2.466832         0.218095        -2.505100
