19
Iteration:  4230
 C        -0.168988        -0.353811         0.153346
 C         1.344227        -0.098530         0.191018
 C         1.957522         1.312200         0.469910
 O         3.446581         1.062693         0.222227
 C         3.383781        -0.364319        -0.076284
 C         2.313210        -1.033260         0.918539
 C         2.033778        -2.102558        -0.131445
 C         2.160968        -0.771335        -0.957440
 O         1.891262        -0.750028        -2.284648
 H        -1.082488         0.489232         0.064399
 H        -0.272643        -0.977864        -0.760133
 H        -0.370839        -1.000643         1.038967
 H         1.572506         2.101399        -0.207136
 H         1.965712         1.754855         1.421050
 H         4.307574        -0.849247        -0.257702
 H         2.383665        -1.097173         2.102786
 H         2.747264        -2.915794        -0.355790
 H         1.048813        -2.540060        -0.020539
 H         2.056363         0.122834        -2.759018
