19
Iteration:  4376charge 0 multiplicity 1
 C        -0.195104        -0.225110         0.091450
 C         1.329919        -0.098383         0.181304
 C         1.919020         1.319774         0.350941
 O         3.434980         1.058490         0.184423
 C         3.387157        -0.321928        -0.010421
 C         2.366373        -1.037165         0.933655
 C         2.156967        -2.210816        -0.084812
 C         2.121254        -0.779952        -0.865987
 O         1.805451        -0.803006        -2.257106
 H        -0.626110        -1.033671         0.795734
 H        -0.746077         0.606108         0.442660
 H        -0.185508        -0.576446        -0.903600
 H         1.549829         2.061833        -0.398952
 H         1.831716         1.660982         1.320197
 H         4.418984        -0.772213        -0.240472
 H         2.485454        -1.093251         1.979279
 H         2.969833        -2.821195        -0.268821
 H         1.184183        -2.681341        -0.053211
 H         2.291955        -0.047130        -2.582440
