19
Iteration:  2732charge 0 multiplicity 1
 C        -0.147510        -0.241709         0.439184
 C         1.298512        -0.036736         0.267460
 C         1.903993         1.354561         0.293742
 O         3.285742         0.994639         0.087686
 C         3.333817        -0.416117        -0.058583
 C         2.264468        -1.044042         0.943966
 C         2.001579        -2.098415        -0.137554
 C         2.046542        -0.844691        -0.936356
 O         2.338866        -0.732512        -2.364568
 H        -0.547225        -0.008862         1.400925
 H        -0.714352         0.415257        -0.261170
 H        -0.571931        -1.157925         0.211080
 H         1.543095         2.099688        -0.348503
 H         1.846306         1.617715         1.265924
 H         4.314499        -0.737686        -0.318488
 H         2.456458        -1.240884         1.997925
 H         2.840556        -2.781327        -0.315379
 H         1.039212        -2.696675        -0.041710
 H         1.447439        -0.626026        -2.829597
