19
Iteration:  3616charge 0 multiplicity 1
 C        -0.187644        -0.195066         0.414014
 C         1.273302        -0.116801         0.220193
 C         1.950969         1.269138         0.303165
 O         3.370501         1.047209         0.169773
 C         3.322839        -0.367229         0.038527
 C         2.293348        -1.122325         0.898170
 C         2.100492        -2.199424        -0.284642
 C         2.152634        -0.867020        -0.983694
 O         2.053255        -0.631667        -2.320162
 H        -0.824720         0.421955        -0.331278
 H        -0.568958        -1.390486         0.390850
 H        -0.490135         0.323743         1.343257
 H         1.549979         1.909983        -0.495120
 H         1.749060         1.779595         1.235104
 H         4.314896        -0.736358         0.052112
 H         2.276236        -1.209398         2.020583
 H         2.969521        -2.916526        -0.335677
 H         1.074132        -2.743543        -0.218641
 H         2.354954         0.245236        -2.451813
