19
Iteration:  2145charge 0 multiplicity 1
 C        -0.146479        -0.085399         0.205309
 C         1.336381        -0.020137         0.254638
 C         1.960204         1.296770         0.308981
 O         3.391422         1.067646         0.255271
 C         3.354212        -0.366028        -0.043081
 C         2.347727        -1.209169         0.950671
 C         2.095778        -2.189930        -0.204595
 C         2.081003        -0.820190        -0.836033
 O         1.899994        -0.714385        -2.321157
 H        -0.689084         0.734404         0.888088
 H        -0.494660        -0.023866        -0.807429
 H        -0.346120        -1.094859         0.441514
 H         1.775345         2.012291        -0.614624
 H         1.598060         1.904998         1.123727
 H         4.440082        -0.777552        -0.197980
 H         2.516790        -1.252300         2.085677
 H         3.011901        -2.768165        -0.532612
 H         1.159275        -2.885242        -0.261359
 H         2.069729        -1.615443        -2.616325
