19
Iteration:  4518
 C        -0.208734        -0.149221         0.258369
 C         1.343089        -0.161441         0.171406
 C         1.907264         1.324040         0.200348
 O         3.305793         1.058431         0.076127
 C         3.368132        -0.328252        -0.045994
 C         2.329564        -1.048246         1.019953
 C         2.166222        -2.190585         0.032226
 C         2.180813        -0.917905        -0.878973
 O         1.920828        -0.687465        -2.266153
 H        -0.480530         0.446878        -0.656167
 H        -0.790123        -1.047163         0.071945
 H        -0.554538         0.462018         1.100825
 H         1.477874         1.890761        -0.687873
 H         1.712273         1.873155         1.177865
 H         4.387651        -0.877291        -0.156914
 H         2.542355        -1.156881         2.027588
 H         3.152910        -2.751399        -0.179541
 H         1.250892        -2.928337         0.033215
 H         2.685615        -1.034685        -2.698871
