19
Iteration:  3102
 C        -0.191308        -0.271216         0.367800
 C         1.279011        -0.042628         0.166941
 C         1.932126         1.406114         0.360251
 O         3.384918         1.072964         0.170961
 C         3.346974        -0.370952        -0.060205
 C         2.246795        -1.013063         0.908006
 C         2.009339        -2.175715        -0.188149
 C         2.145246        -0.827396        -0.919879
 O         2.150286        -0.854201        -2.313199
 H        -0.477870         0.081774         1.321296
 H        -0.848944         0.213987        -0.391320
 H        -0.444268        -1.272028         0.322407
 H         1.608167         1.945923        -0.462371
 H         1.745838         1.643312         1.451463
 H         4.385434        -0.800268        -0.310194
 H         2.323646        -1.035345         2.048172
 H         2.759501        -2.882085        -0.276255
 H         0.951006        -2.606932        -0.132425
 H         2.274914        -0.101551        -2.836741
