19
Iteration:  1046charge 0 multiplicity 1
 C        -0.096984        -0.079993         0.092056
 C         1.443147        -0.066136         0.239147
 C         2.095010         1.266205         0.311856
 O         3.518028         0.943930         0.158617
 C         3.328944        -0.604343         0.003452
 C         2.361753        -1.181299         0.981615
 C         1.763579        -2.149861        -0.097953
 C         2.152727        -0.875856        -0.911512
 O         1.806704        -0.494612        -2.223049
 H        -0.473698        -0.291187        -0.970064
 H        -0.626397        -0.678480         0.712115
 H        -0.548388         0.952112         0.204984
 H         1.645662         1.888292        -0.450249
 H         1.943887         1.855199         1.253502
 H         4.352694        -0.803812        -0.299828
 H         2.452000        -1.268593         2.037789
 H         2.249501        -3.124949        -0.157378
 H         0.687080        -2.284499         0.021552
 H         2.599568         0.006901        -2.661527
