19
Iteration:   329charge 0 multiplicity 1
 C        -0.198074         0.151099         0.353032
 C         1.353408         0.034935         0.264383
 C         2.171292         1.331335         0.099306
 O         3.566697         0.759464         0.071336
 C         3.315522        -0.618958         0.117579
 C         2.137652        -1.052418         1.039518
 C         1.865026        -2.153027        -0.168263
 C         2.105871        -0.856588        -0.913470
 O         2.005483        -0.633091        -2.289180
 H        -0.538599         0.252895         1.384098
 H        -0.643340         0.931001        -0.334835
 H        -0.628448        -0.729382        -0.016662
 H         1.947757         1.759978        -0.965268
 H         2.259798         2.152574         0.854743
 H         4.325502        -1.118873         0.069374
 H         2.028157        -1.248619         2.083678
 H         2.657663        -2.851756        -0.404754
 H         0.946845        -2.700167         0.000044
 H         1.543532        -1.358110        -2.610889
