19
Iteration:     1
 C        -0.129189         0.130903         0.282466
 C         1.372917         0.011986         0.176890
 C         2.193310         1.302158         0.235811
 O         3.534423         0.807184         0.110006
 C         3.324138        -0.580933        -0.013115
 C         2.213205        -1.069452         0.959184
 C         1.801495        -2.149018        -0.068650
 C         2.076502        -0.875008        -0.906354
 O         1.901104        -0.650909        -2.258317
 H        -0.417283         0.619111         1.220188
 H        -0.526480         0.733494        -0.541571
 H        -0.624677        -0.842995         0.248743
 H         1.963267         1.984595        -0.592165
 H         2.077430         1.842383         1.184195
 H         4.264819        -1.119534        -0.127466
 H         2.295064        -1.172622         2.038819
 H         2.495246        -2.985583        -0.197816
 H         0.770408        -2.503401        -0.030066
 H         2.558563        -1.157178        -2.747364
