19
Iteration:  4271
 C        -0.205057        -0.150193         0.478805
 C         1.287969        -0.092125         0.203901
 C         1.862312         1.251262         0.273157
 O         3.316777         1.013010         0.152238
 C         3.296842        -0.376482        -0.027177
 C         2.305761        -1.103471         0.877093
 C         2.097299        -2.193671        -0.223208
 C         2.209068        -0.774632        -0.938159
 O         2.150183        -0.700250        -2.318602
 H        -0.421703         0.638204         1.018425
 H        -0.764473        -0.321168        -0.456143
 H        -0.497185        -0.948272         1.167029
 H         1.500703         1.857897        -0.540903
 H         1.488511         1.669140         1.230008
 H         4.312922        -0.768683        -0.209950
 H         2.326434        -1.187349         1.973991
 H         2.949462        -2.977535        -0.414759
 H         1.162745        -2.735830        -0.183763
 H         2.278355         0.189688        -2.581893
