19
Iteration:  3216charge 0 multiplicity 1
 C        -0.199309        -0.257873         0.353877
 C         1.350384        -0.089058         0.157483
 C         1.950088         1.338951         0.284442
 O         3.344926         1.027185         0.189538
 C         3.294384        -0.405587        -0.048419
 C         2.286950        -1.041451         0.919483
 C         2.030312        -2.207301        -0.098725
 C         2.149188        -0.817818        -0.961420
 O         2.049430        -0.668570        -2.337730
 H        -0.442915         0.470645         1.152185
 H        -0.805422        -0.156251        -0.513865
 H        -0.310382        -1.321052         0.753044
 H         1.641471         1.907722        -0.572529
 H         1.790845         1.744171         1.250454
 H         4.315018        -0.634782        -0.089165
 H         2.245682        -1.130437         2.025226
 H         2.971246        -2.791096        -0.185308
 H         1.180227        -2.765635        -0.092038
 H         2.809516        -0.148579        -2.565271
