19
Iteration:  1654charge 0 multiplicity 1
 C        -0.194148        -0.073764         0.373017
 C         1.294648        -0.057993         0.194113
 C         1.950050         1.328799         0.297146
 O         3.408636         0.961024         0.182463
 C         3.341603        -0.413640        -0.036665
 C         2.322665        -1.046446         0.867320
 C         1.935316        -2.148463        -0.114485
 C         2.095568        -0.893733        -0.936333
 O         2.184443        -0.736140        -2.348283
 H        -0.378264        -0.261591         1.431729
 H        -0.527064         0.934155         0.063017
 H        -0.594361        -0.934926        -0.116061
 H         1.660324         1.979195        -0.593930
 H         1.846690         1.807042         1.272543
 H         4.390758        -0.925249        -0.053868
 H         2.372597        -0.989814         1.945722
 H         2.681876        -2.972813        -0.152440
 H         0.873199        -2.485490        -0.091375
 H         1.300907        -0.937137        -2.708348
