19
Iteration:  4877
 C        -0.192887        -0.014056         0.176868
 C         1.308312        -0.116170         0.128209
 C         1.875671         1.317212         0.187575
 O         3.306860         1.078743         0.055242
 C         3.352492        -0.354247        -0.050669
 C         2.329491        -0.968072         1.040410
 C         2.241470        -2.147884         0.111922
 C         2.197926        -0.929547        -0.876233
 O         1.939268        -1.010456        -2.254513
 H        -0.710610        -0.980578        -0.010943
 H        -0.702610         0.246797         1.131322
 H        -0.335150         0.858575        -0.479750
 H         1.394341         1.962461        -0.690058
 H         1.608251         1.657057         1.215465
 H         4.504043        -0.554405        -0.071488
 H         2.596387        -0.904299         2.030075
 H         3.138713        -2.763996         0.060580
 H         1.312347        -2.841253         0.158506
 H         1.957691        -0.083226        -2.697157
