19
Iteration:  3043
 C        -0.254937        -0.102405         0.313604
 C         1.302396        -0.145659         0.190237
 C         1.937711         1.268920         0.200473
 O         3.276261         1.030208         0.075698
 C         3.353222        -0.431087         0.030179
 C         2.301495        -1.112032         0.993452
 C         2.152584        -2.191947        -0.189532
 C         2.159640        -0.825188        -0.882136
 O         2.056279        -0.664806        -2.200039
 H        -0.514693         0.652247         1.091915
 H        -0.624217         0.217271        -0.582814
 H        -0.623955        -1.144041         0.601930
 H         1.656242         1.946513        -0.549539
 H         1.700165         1.987803         1.034790
 H         4.345090        -0.764498        -0.117948
 H         2.463344        -1.457904         1.938525
 H         3.068572        -2.931172        -0.392519
 H         1.274698        -2.796944        -0.150066
 H         2.557432         0.063835        -2.680648
