19
Iteration:   524charge 0 multiplicity 1
 C        -0.059434         0.085438         0.218086
 C         1.414167         0.007108         0.103967
 C         2.161747         1.280689         0.395439
 O         3.442833         0.939715         0.157705
 C         3.360787        -0.496829        -0.059251
 C         2.338145        -1.036661         0.928391
 C         1.757309        -2.133125        -0.029479
 C         1.985527        -0.874306        -0.949330
 O         2.006363        -0.884811        -2.311239
 H        -0.395084         0.338898         1.240589
 H        -0.506128         1.008407        -0.305841
 H        -0.531133        -0.758951        -0.218885
 H         1.727892         2.160839        -0.085913
 H         1.930458         1.447551         1.516245
 H         4.444161        -0.990785        -0.205060
 H         2.566616        -1.213759         2.031945
 H         2.195634        -3.143526        -0.298283
 H         0.637540        -2.194381         0.289470
 H         1.307867        -0.381853        -2.729879
