19
Iteration:  1818charge 0 multiplicity 1
 C        -0.155150        -0.062687         0.241333
 C         1.340187        -0.079011         0.279180
 C         1.939224         1.252251         0.397245
 O         3.349652         1.001195         0.110245
 C         3.295932        -0.375691        -0.071717
 C         2.346952        -1.056385         0.983382
 C         1.962695        -2.196436        -0.134822
 C         2.108473        -0.819524        -0.904954
 O         2.153970        -0.720813        -2.351213
 H        -0.581887         0.361494         1.240923
 H        -0.324767         0.734912        -0.505223
 H        -0.689198        -0.984641         0.076611
 H         1.566403         1.800464        -0.421441
 H         1.915789         1.658070         1.376196
 H         4.268149        -0.754175        -0.337140
 H         2.479268        -1.222868         2.024347
 H         2.774580        -2.852696        -0.205062
 H         0.998600        -2.636973        -0.040146
 H         1.536120        -1.386969        -2.753414
