19
Iteration:  2210charge 0 multiplicity 1
 C        -0.180376        -0.267275         0.294595
 C         1.346410        -0.008887         0.257454
 C         2.009823         1.310977         0.232676
 O         3.334074         0.932659         0.024577
 C         3.285853        -0.486346        -0.053233
 C         2.287405        -1.021354         0.950796
 C         1.998245        -2.128696        -0.161089
 C         2.133381        -0.866801        -0.879081
 O         2.066786        -0.594898        -2.178685
 H        -0.803922         0.262241         1.195731
 H        -0.750869         0.109594        -0.535551
 H        -0.319904        -1.303446         0.536639
 H         1.566786         1.873911        -0.715593
 H         1.918720         1.807822         1.237796
 H         4.393863        -0.894925         0.008214
 H         2.427167        -0.996943         2.081391
 H         2.806427        -2.857898        -0.367517
 H         0.965605        -2.631553        -0.154094
 H         2.864795        -0.003159        -2.452162
