19
Iteration:   455charge 0 multiplicity 1
 C        -0.147546         0.125383         0.401204
 C         1.324467        -0.049556         0.225387
 C         2.123332         1.254718         0.021312
 O         3.462611         0.871675         0.116728
 C         3.318473        -0.618724        -0.016062
 C         2.242290        -1.139753         0.972459
 C         1.748342        -2.180325        -0.069346
 C         2.195547        -0.951210        -0.881674
 O         2.072666        -0.473422        -2.241112
 H        -0.324904         0.967371         1.099453
 H        -0.588354         0.444667        -0.487978
 H        -0.702753        -0.833039         0.784316
 H         1.861041         1.748616        -0.952992
 H         1.871979         2.031237         0.870223
 H         4.251094        -1.003813        -0.092904
 H         2.371473        -1.277056         2.024482
 H         2.322557        -3.123615        -0.195269
 H         0.696739        -2.313274         0.054548
 H         2.079794        -1.150294        -2.873883
