19
Iteration:  2127
 C        -0.243241        -0.135552         0.216425
 C         1.329502        -0.136685         0.264442
 C         2.000910         1.350989         0.346082
 O         3.415580         1.029600         0.233002
 C         3.394154        -0.346335         0.079075
 C         2.343497        -1.062469         0.894422
 C         2.130274        -2.119368        -0.210512
 C         2.171477        -0.845527        -1.004157
 O         1.883400        -0.763945        -2.318107
 H        -0.482650         0.482917         1.014531
 H        -0.578229         0.386821        -0.736845
 H        -0.841818        -1.070416         0.181163
 H         1.441390         1.987319        -0.304154
 H         1.865773         1.852893         1.324566
 H         4.364798        -0.744062        -0.038389
 H         2.377641        -1.345449         2.026376
 H         2.853970        -2.910204        -0.313217
 H         1.116937        -2.573030        -0.113386
 H         1.638676        -1.623240        -2.629736
