19
Iteration:  4789charge 0 multiplicity 1
 C        -0.243024        -0.192063         0.399857
 C         1.261411        -0.029383         0.143842
 C         1.883758         1.344041         0.074900
 O         3.353098         1.024589         0.006125
 C         3.349889        -0.332408        -0.042445
 C         2.295832        -0.923535         1.013375
 C         2.080241        -2.136531         0.047077
 C         2.179452        -0.914705        -0.861414
 O         2.100606        -0.914191        -2.274245
 H        -0.555746        -1.178752        -0.120824
 H        -0.390041        -0.297305         1.516591
 H        -0.869565         0.662407         0.030758
 H         1.565516         1.688725        -1.003569
 H         1.756261         2.153863         0.842550
 H         4.404851        -0.815318        -0.120146
 H         2.262723        -0.994822         2.055587
 H         2.874206        -2.760367         0.060673
 H         1.047285        -2.395176         0.238348
 H         3.006386        -0.470333        -2.441077
