19
Iteration:  2903charge 0 multiplicity 1
 C        -0.202258        -0.068048         0.458343
 C         1.260920        -0.082840         0.297727
 C         1.919330         1.338067         0.240611
 O         3.259343         1.044924         0.054123
 C         3.332695        -0.438576         0.021975
 C         2.248636        -1.165701         0.920629
 C         2.092178        -2.223801        -0.197093
 C         2.222504        -0.909612        -0.990099
 O         2.171918        -0.707134        -2.296303
 H        -0.550289         0.308367         1.469604
 H        -0.665413         0.633694        -0.309557
 H        -0.561791        -1.169261         0.284282
 H         1.390755         1.920953        -0.547366
 H         1.747498         1.883869         1.050961
 H         4.355907        -0.755920         0.069142
 H         2.494319        -1.258192         1.920024
 H         3.032894        -2.859757        -0.257121
 H         1.144909        -2.663045        -0.329410
 H         2.277575         0.303124        -2.428184
