19
Iteration:   874charge 0 multiplicity 1
 C        -0.055725        -0.059984         0.116413
 C         1.403971        -0.052122         0.296242
 C         2.083674         1.323735         0.221383
 O         3.425565         0.879516         0.183677
 C         3.376210        -0.552362        -0.055822
 C         2.318714        -1.123639         0.960125
 C         1.867885        -2.131552        -0.047607
 C         2.140598        -0.816954        -0.893396
 O         1.862258        -0.652203        -2.214271
 H        -0.602540         0.763339         0.691760
 H        -0.429243         0.359119        -0.923666
 H        -0.661749        -0.911825         0.197114
 H         1.754640         1.853096        -0.703877
 H         1.930653         1.887631         1.091775
 H         4.310494        -1.007609        -0.169453
 H         2.544151        -1.177660         1.950735
 H         2.441402        -3.060148        -0.330304
 H         0.851979        -2.505032        -0.016097
 H         1.689466         0.256534        -2.380110
