19
Iteration:  2318charge 0 multiplicity 1
 C        -0.158363        -0.241881         0.186189
 C         1.370698        -0.067647         0.221673
 C         1.974935         1.255688         0.288334
 O         3.337545         1.000186         0.138317
 C         3.349261        -0.410625        -0.042676
 C         2.345331        -1.034016         0.947282
 C         1.986359        -2.089866        -0.076750
 C         2.150898        -0.757045        -0.876036
 O         1.955513        -0.759278        -2.262520
 H        -0.518321        -0.026425         1.263258
 H        -0.490904         0.490351        -0.537062
 H        -0.627970        -1.208054        -0.025969
 H         1.734697         1.877954        -0.576576
 H         1.828236         1.741591         1.313026
 H         4.413260        -0.797002        -0.336167
 H         2.608395        -1.222686         2.011799
 H         2.669817        -2.897623        -0.214807
 H         0.945277        -2.443615         0.050726
 H         2.568408        -0.077017        -2.658357
