19
Iteration:  2160charge 0 multiplicity 1
 C        -0.153289        -0.153424         0.230535
 C         1.352776        -0.106889         0.169525
 C         1.941209         1.352061         0.246310
 O         3.336528         0.928237         0.264532
 C         3.338551        -0.432855        -0.071510
 C         2.366038        -1.057643         0.926009
 C         2.095716        -2.156793        -0.118941
 C         2.152438        -0.816623        -0.932180
 O         1.909513        -0.613705        -2.218118
 H        -0.539727         0.644005         0.768696
 H        -0.584832         0.037739        -0.793708
 H        -0.621306        -0.996511         0.772800
 H         1.654687         1.920306        -0.618925
 H         1.872749         1.833221         1.226926
 H         4.280355        -0.774130        -0.345813
 H         2.547071        -1.290806         2.025987
 H         2.914527        -2.856756        -0.275661
 H         1.110989        -2.660200        -0.095343
 H         2.357132        -1.269016        -2.720781
