19
Iteration:  4846
 C        -0.256805        -0.173886         0.370319
 C         1.255120        -0.083085         0.201788
 C         1.929159         1.392453         0.067467
 O         3.334311         1.071678        -0.096301
 C         3.297947        -0.360829        -0.023977
 C         2.317966        -0.991137         1.060750
 C         2.091323        -2.129503         0.021634
 C         2.180013        -0.872386        -0.809105
 O         2.152106        -0.960085        -2.245659
 H        -0.701217        -0.916966        -0.321726
 H        -0.600076        -0.237851         1.451145
 H        -0.699645         0.782726        -0.112143
 H         1.416082         1.976802        -0.784262
 H         1.724256         1.962925         1.004326
 H         4.378104        -0.809300        -0.019726
 H         2.503012        -1.030790         2.134199
 H         2.781429        -2.863964        -0.048042
 H         1.223330        -2.753397         0.102982
 H         2.471983        -0.133605        -2.530465
