19
Iteration:   484charge 0 multiplicity 1
 C        -0.157293         0.059257         0.428449
 C         1.294929         0.059340         0.215645
 C         2.214640         1.274453         0.098282
 O         3.517074         0.828466         0.089197
 C         3.248817        -0.582775         0.058144
 C         2.122536        -1.059764         0.951170
 C         1.906957        -2.153755        -0.175230
 C         2.090874        -0.854065        -0.879840
 O         2.089919        -0.652427        -2.254338
 H        -0.530851         0.582871         1.303506
 H        -0.657437         0.560100        -0.494301
 H        -0.441389        -0.962365         0.565138
 H         2.050749         1.822347        -0.866654
 H         2.097925         1.953081         0.942474
 H         4.263528        -1.138246        -0.027010
 H         2.026199        -1.070312         2.070556
 H         2.758871        -2.782294        -0.401272
 H         0.964674        -2.710771        -0.111863
 H         1.162387        -0.836844        -2.620042
