19
Iteration:  2201charge 0 multiplicity 1
 C        -0.100049        -0.310756         0.301401
 C         1.306970        -0.044098         0.169685
 C         2.009794         1.373183         0.250294
 O         3.376015         0.961468        -0.000476
 C         3.314416        -0.452330         0.024365
 C         2.233702        -1.108010         0.965800
 C         1.988252        -2.160619        -0.093721
 C         2.160717        -0.864078        -0.873413
 O         1.996664        -0.531879        -2.225092
 H        -0.471584         0.405590         1.133686
 H        -0.593752        -0.049714        -0.663290
 H        -0.374544        -1.295153         0.623633
 H         1.748139         2.017368        -0.668086
 H         1.710747         1.893106         1.156778
 H         4.305811        -0.946576        -0.130066
 H         2.212911        -1.215416         2.135808
 H         2.791073        -2.930264        -0.174315
 H         0.937611        -2.662639        -0.050514
 H         2.855601        -0.136627        -2.613403
