19
Iteration:  1189charge 0 multiplicity 1
 C        -0.116508        -0.063164         0.349878
 C         1.375838        -0.009991         0.168384
 C         2.084215         1.277614         0.225794
 O         3.451441         0.884481         0.033780
 C         3.328415        -0.571674        -0.024483
 C         2.196056        -1.042233         0.951188
 C         1.776623        -2.161849        -0.059865
 C         2.125179        -0.863355        -0.915773
 O         2.133766        -0.611845        -2.294992
 H        -0.616268         0.944561         0.604928
 H        -0.651440        -0.613171        -0.362404
 H        -0.280420        -0.480214         1.381693
 H         1.717773         2.014105        -0.475088
 H         1.950828         1.737682         1.253539
 H         4.306265        -1.174073         0.085306
 H         2.258333        -1.086104         2.074987
 H         2.383853        -3.069763        -0.212212
 H         0.747907        -2.586730        -0.053989
 H         1.647382         0.311191        -2.393422
