19
Iteration:  3963charge 0 multiplicity 1
 C        -0.217640        -0.164098         0.537556
 C         1.278768        -0.095913         0.197031
 C         1.893329         1.166937         0.469622
 O         3.305267         1.037830         0.182678
 C         3.320200        -0.380777         0.037680
 C         2.304517        -1.129810         0.845191
 C         2.122620        -2.231994        -0.391861
 C         2.159277        -0.824026        -1.011943
 O         2.137734        -0.548329        -2.414279
 H        -0.501435        -0.206583         1.607259
 H        -0.955364         0.475790        -0.014484
 H        -0.607136        -1.206935         0.366365
 H         1.436862         2.049956        -0.255264
 H         1.756160         1.519202         1.535564
 H         4.296579        -0.837068        -0.226162
 H         2.426844        -1.365346         1.921965
 H         3.023171        -2.796623        -0.489895
 H         1.155325        -2.697866        -0.350252
 H         2.603124         0.302027        -2.520606
