19
Iteration:  3249
 C        -0.304308        -0.033187         0.394254
 C         1.303743        -0.167988         0.250483
 C         1.893024         1.209975         0.302078
 O         3.294527         1.062772         0.108494
 C         3.360195        -0.327039        -0.055504
 C         2.340295        -1.145104         0.950281
 C         2.103453        -2.221295        -0.215115
 C         2.164224        -0.834455        -0.951559
 O         2.164418        -0.738396        -2.315114
 H        -0.511450         0.736326         1.194620
 H        -0.881268         0.244942        -0.430838
 H        -0.918101        -0.855705         0.973350
 H         1.370879         1.863389        -0.402989
 H         1.665248         1.847502         1.274474
 H         4.343278        -0.695751        -0.193798
 H         2.423066        -1.331639         2.029111
 H         2.979772        -2.909070        -0.342632
 H         1.294279        -2.820334        -0.155323
 H         2.620658         0.102725        -2.668443
