19
Iteration:  2260
 C        -0.131269        -0.088380         0.411083
 C         1.336497        -0.052122         0.122017
 C         1.845660         1.270657         0.345598
 O         3.350719         0.994174         0.155143
 C         3.358869        -0.403220         0.029239
 C         2.257753        -0.952854         0.891891
 C         2.054427        -2.168666        -0.233326
 C         2.229436        -0.908776        -0.922007
 O         2.050295        -0.871165        -2.326055
 H        -0.291101         0.146494         1.389712
 H        -0.596837         0.889456        -0.031526
 H        -0.857059        -0.885991        -0.058663
 H         1.710853         2.131173        -0.297699
 H         1.533294         1.673610         1.354584
 H         4.373349        -0.751227        -0.118392
 H         2.347317        -0.962511         1.931433
 H         2.924760        -2.833326        -0.222186
 H         1.136813        -2.642437        -0.322690
 H         1.943169         0.042840        -2.551298
