19
Iteration:  1574
 C        -0.130588        -0.031100         0.160440
 C         1.387289        -0.099099         0.181803
 C         2.017967         1.255765         0.333425
 O         3.398316         0.999340         0.121566
 C         3.363149        -0.466787        -0.053526
 C         2.265010        -1.071313         0.979327
 C         2.015135        -2.217436        -0.043966
 C         2.146199        -0.896149        -0.877439
 O         1.854285        -0.630478        -2.269305
 H        -0.535979         0.391959         1.188973
 H        -0.473642         0.612028        -0.634778
 H        -0.466779        -1.030988        -0.137936
 H         1.629370         2.037711        -0.410739
 H         1.748649         1.833720         1.254750
 H         4.355042        -0.840852        -0.198193
 H         2.438879        -1.164344         2.072204
 H         2.756249        -2.964837        -0.299972
 H         1.078002        -2.693922         0.200722
 H         2.706594        -0.620490        -2.753452
