19
Iteration:  1027charge 0 multiplicity 1
 C        -0.083749        -0.024390         0.312528
 C         1.369303        -0.082948         0.270560
 C         2.080524         1.253593         0.244445
 O         3.430043         0.823280         0.110698
 C         3.386064        -0.529336        -0.076205
 C         2.223376        -1.126174         0.940687
 C         1.805420        -2.149101        -0.129087
 C         2.099081        -0.825853        -0.880545
 O         2.008807        -0.526947        -2.270925
 H        -0.523219        -0.208076        -0.758365
 H        -0.618169        -0.696657         1.099184
 H        -0.436706         0.973289         0.535452
 H         1.644342         1.845675        -0.662452
 H         1.841939         1.961378         1.067714
 H         4.444760        -0.975661        -0.050734
 H         2.378730        -1.338279         1.992722
 H         2.391031        -3.099766        -0.373734
 H         0.761169        -2.525275        -0.140275
 H         2.590345         0.275207        -2.257335
