19
Iteration:  2416charge 0 multiplicity 1
 C        -0.118928        -0.260895         0.388492
 C         1.333931        -0.070793         0.149255
 C         1.889912         1.330400         0.317868
 O         3.438394         1.062711         0.206775
 C         3.336828        -0.453742         0.055215
 C         2.291279        -0.992245         0.901802
 C         1.952458        -2.082142        -0.226109
 C         2.133142        -0.801710        -0.974664
 O         2.055168        -0.857693        -2.353260
 H        -0.606487         0.596130         1.028219
 H        -0.555559        -0.193255        -0.633092
 H        -0.421427        -1.162522         0.995808
 H         1.792328         2.103851        -0.449667
 H         1.659424         1.641913         1.409932
 H         4.479932        -0.787139        -0.016782
 H         2.246811        -0.939877         2.022920
 H         2.697756        -2.832343        -0.248386
 H         0.923866        -2.513888        -0.066409
 H         2.120740        -0.075681        -2.968115
