19
Iteration:  4091
 C        -0.154380        -0.286335         0.395238
 C         1.276138        -0.128895         0.240274
 C         1.901212         1.290478         0.478467
 O         3.330677         1.064869         0.163396
 C         3.320067        -0.363674        -0.084319
 C         2.305474        -1.072853         0.865314
 C         1.989900        -2.132098        -0.242714
 C         2.168837        -0.814323        -0.986050
 O         2.164233        -0.695451        -2.362298
 H        -0.756470        -1.169589         0.049001
 H        -0.389299        -0.505519         1.501621
 H        -0.736357         0.672444         0.117232
 H         1.606757         1.951665        -0.318946
 H         1.770666         1.860577         1.459778
 H         4.312596        -0.744410        -0.320437
 H         2.486523        -1.302169         2.003654
 H         2.709699        -2.963521        -0.407421
 H         0.893382        -2.672933        -0.259916
 H         2.554017         0.205105        -2.565786
