19
Iteration:  3269
 C        -0.179711        -0.093184         0.401076
 C         1.314135        -0.125486         0.207478
 C         1.869876         1.315529         0.350273
 O         3.307717         1.084715         0.033202
 C         3.310905        -0.389796        -0.008336
 C         2.255152        -1.147488         0.915573
 C         2.116600        -2.194779        -0.204713
 C         2.215155        -0.840433        -0.914221
 O         2.125512        -0.777905        -2.281995
 H        -0.531181         0.469459         1.212752
 H        -0.531555         0.225232        -0.564454
 H        -0.599212        -1.044966         0.540154
 H         1.392378         2.060140        -0.279162
 H         1.738137         1.718928         1.510088
 H         4.313906        -0.703951        -0.103367
 H         2.252439        -1.373016         2.044528
 H         2.924971        -2.916249        -0.437565
 H         1.183225        -2.664307        -0.431792
 H         2.157092         0.172121        -2.404703
