19
Iteration:  1811
 C        -0.065603        -0.047748         0.198481
 C         1.343465        -0.126634         0.289432
 C         1.939621         1.265656         0.356947
 O         3.323775         1.019614         0.133696
 C         3.339813        -0.437069        -0.032657
 C         2.349327        -1.082451         0.946812
 C         1.997931        -2.153698        -0.084703
 C         2.025502        -0.823481        -0.895884
 O         2.107687        -0.676955        -2.351320
 H        -0.554620         0.378412         1.005966
 H        -0.398442         0.690859        -0.618681
 H        -0.742630        -0.997468         0.093077
 H         1.519658         1.963164        -0.462240
 H         1.824928         1.683012         1.402659
 H         4.322568        -0.794604        -0.358844
 H         2.661569        -1.328651         2.041720
 H         2.819167        -2.981659        -0.129591
 H         0.925442        -2.567370        -0.031416
 H         1.617615        -1.507991        -2.723868
