19
Iteration:  2206charge 0 multiplicity 1
 C        -0.135334        -0.289438         0.297279
 C         1.320760        -0.007497         0.215193
 C         2.020523         1.357752         0.239260
 O         3.344557         0.942361         0.007701
 C         3.296795        -0.473176        -0.025813
 C         2.261879        -1.075180         0.964684
 C         1.989971        -2.136548        -0.137377
 C         2.149718        -0.884509        -0.867751
 O         2.039916        -0.558530        -2.193712
 H        -0.615110         0.237383         1.068585
 H        -0.665908         0.099422        -0.590130
 H        -0.352364        -1.338303         0.676978
 H         1.706903         1.816152        -0.649613
 H         1.760374         1.801914         1.236124
 H         4.289640        -0.901511        -0.017523
 H         2.295183        -1.047940         1.989611
 H         2.776797        -2.867968        -0.268739
 H         1.071462        -2.584305        -0.094050
 H         2.780927        -0.101303        -2.526610
