19
Iteration:   269charge 0 multiplicity 1
 C        -0.183812         0.206627         0.306755
 C         1.315342         0.005805         0.237199
 C         2.187556         1.335903         0.311915
 O         3.489373         0.842014         0.129386
 C         3.295323        -0.533647        -0.086901
 C         2.251892        -1.117073         0.963564
 C         1.742015        -2.185757        -0.042337
 C         2.119503        -0.886010        -0.967894
 O         2.067402        -0.704944        -2.362481
 H        -0.392162         1.092095         0.929368
 H        -0.627261         0.377207        -0.672794
 H        -0.711722        -0.699903         0.808703
 H         1.867897         2.025948        -0.415672
 H         2.103155         1.756465         1.286086
 H         4.278516        -0.996564        -0.243891
 H         2.574654        -1.325898         2.059209
 H         2.360496        -3.156636        -0.055265
 H         0.650765        -2.462285         0.127586
 H         2.311656        -1.565208        -2.690161
