19
Iteration:  1518charge 0 multiplicity 1
 C        -0.161417        -0.121638         0.521592
 C         1.280662        -0.003132         0.094018
 C         2.011383         1.412871         0.342161
 O         3.436247         0.897567         0.125639
 C         3.274746        -0.477207        -0.021665
 C         2.141677        -0.992852         0.895351
 C         1.968065        -2.134221        -0.158778
 C         2.150387        -0.916887        -0.958542
 O         2.224511        -0.774191        -2.379231
 H        -0.630022         0.798027         1.040317
 H        -0.763591        -0.291104        -0.344284
 H        -0.462147        -0.944955         1.201658
 H         1.877878         2.147047        -0.467618
 H         1.870765         1.661157         1.378340
 H         4.170482        -0.980619         0.077086
 H         2.262530        -0.948157         1.962581
 H         2.735011        -2.831626        -0.341908
 H         0.970611        -2.490474        -0.216437
 H         1.476478        -0.154680        -2.733915
