19
Iteration:  2059
 C        -0.221544        -0.190312         0.419099
 C         1.292764        -0.101062         0.298048
 C         1.897147         1.247611         0.174311
 O         3.325993         1.005503        -0.012138
 C         3.385123        -0.408865        -0.004460
 C         2.275497        -1.127523         0.941944
 C         1.993827        -2.104430        -0.190183
 C         2.200409        -0.819999        -0.891453
 O         2.252089        -0.636322        -2.240301
 H        -0.369743        -0.166107         1.533656
 H        -0.924050         0.581470         0.092737
 H        -0.705377        -1.084516         0.023473
 H         1.549823         1.914629        -0.625737
 H         1.779491         1.978720         1.061817
 H         4.422293        -0.945594        -0.041876
 H         2.236753        -1.290735         2.128098
 H         2.675858        -2.975217        -0.315969
 H         0.905413        -2.497185        -0.145862
 H         1.370483        -0.217232        -2.568068
