19
Iteration:    63charge 0 multiplicity 1
 C        -0.161001         0.081149         0.213480
 C         1.367752         0.003637         0.165834
 C         2.203532         1.299312         0.302957
 O         3.618990         0.853175         0.186847
 C         3.372423        -0.582103        -0.151304
 C         2.096580        -1.038601         0.934673
 C         1.847285        -2.176028         0.038721
 C         2.141445        -0.929130        -0.933970
 O         1.880574        -0.668774        -2.306170
 H        -0.596809         0.812224         0.932437
 H        -0.498987         0.313949        -0.785024
 H        -0.684556        -0.952274         0.466426
 H         1.979753         2.108364        -0.514910
 H         2.192875         1.668107         1.378147
 H         4.305898        -1.072563        -0.099049
 H         2.162089        -0.931282         2.082360
 H         2.607146        -3.012012         0.028028
 H         0.847206        -2.712346        -0.039140
 H         1.338910         0.069041        -2.311893
