19
Iteration:   274
 C        -0.181042         0.166818         0.339504
 C         1.327895        -0.009030         0.246092
 C         2.148524         1.310561         0.279471
 O         3.498179         0.834856         0.129860
 C         3.265903        -0.583644        -0.039599
 C         2.286280        -1.068449         0.955147
 C         1.706065        -2.184039        -0.004126
 C         2.121213        -0.871093        -1.005371
 O         2.091606        -0.671249        -2.391517
 H        -0.422940         1.049670         0.949678
 H        -0.582787         0.445124        -0.662987
 H        -0.639366        -0.660680         0.765772
 H         1.841596         2.159569        -0.490260
 H         2.121740         1.841757         1.300710
 H         4.241759        -1.098164        -0.163914
 H         2.690812        -1.341422         1.870498
 H         2.320787        -3.055165         0.075413
 H         0.658814        -2.348226         0.057674
 H         2.292933        -1.597205        -2.697733
