19
Iteration:  3457charge 0 multiplicity 1
 C        -0.275857        -0.133572         0.320627
 C         1.324194        -0.074325         0.232473
 C         1.928775         1.350408         0.292983
 O         3.345466         1.012915         0.178267
 C         3.334787        -0.396120        -0.103722
 C         2.275784        -1.069033         0.977214
 C         2.133881        -2.201292        -0.075009
 C         2.216452        -0.894806        -0.963641
 O         2.053880        -0.739023        -2.359670
 H        -0.523071        -0.648367         1.327027
 H        -0.742084         0.830183         0.299821
 H        -0.661620        -0.841896        -0.538624
 H         1.593783         1.920811        -0.555454
 H         1.747871         1.931741         1.081881
 H         4.404657        -0.869855        -0.013892
 H         2.475023        -1.070017         2.033586
 H         3.120014        -2.803266        -0.084067
 H         1.233430        -2.807359        -0.238170
 H         1.762192         0.145946        -2.506413
