19
Iteration:   590charge 0 multiplicity 1
 C        -0.123433         0.083334         0.300500
 C         1.390785        -0.009425         0.167664
 C         2.096041         1.268125         0.175058
 O         3.449534         0.844641         0.155891
 C         3.349144        -0.577676        -0.068431
 C         2.233049        -1.027204         0.957090
 C         1.878952        -2.194228        -0.054598
 C         2.121803        -0.899116        -0.901392
 O         1.892705        -0.661541        -2.242856
 H        -0.314083         0.355775         1.341517
 H        -0.621966         0.762978        -0.453141
 H        -0.543636        -0.850520         0.072570
 H         1.998538         1.984623        -0.654317
 H         1.999012         1.949811         1.118060
 H         4.441362        -1.001738        -0.168382
 H         2.240598        -1.071529         2.095617
 H         2.618440        -3.026702        -0.098673
 H         0.754894        -2.438013        -0.058404
 H         2.644328        -0.180944        -2.636618
