19
Iteration:  3232charge 0 multiplicity 1
 C        -0.177086        -0.118100         0.438255
 C         1.234622        -0.094516         0.213677
 C         1.854002         1.271903         0.290551
 O         3.277248         0.971536         0.172988
 C         3.321985        -0.415574        -0.026688
 C         2.334025        -1.057671         0.906455
 C         2.170054        -2.140720        -0.135701
 C         2.147246        -0.914859        -0.960957
 O         2.120482        -0.677477        -2.383119
 H        -0.626105         0.750085         1.009885
 H        -0.650531         0.099479        -0.605510
 H        -0.640292        -1.057941         0.849442
 H         1.572864         2.082919        -0.496179
 H         1.620437         1.808141         1.262689
 H         4.324530        -0.951211        -0.250745
 H         2.641739        -1.136787         1.953736
 H         2.954606        -2.881960        -0.315981
 H         1.049911        -2.628116        -0.057436
 H         2.822259        -0.011512        -2.620478
