19
Iteration:  3020
 C        -0.238833        -0.070860         0.202767
 C         1.330278        -0.177919         0.264034
 C         1.843814         1.211449         0.291584
 O         3.372134         1.008883         0.080406
 C         3.355110        -0.387813        -0.043754
 C         2.331503        -1.080761         1.006812
 C         2.188880        -2.189889        -0.050266
 C         2.117776        -0.934290        -0.894816
 O         1.966371        -0.586237        -2.300453
 H        -0.713089         0.614442         0.941991
 H        -0.319305         0.347245        -0.759362
 H        -0.623896        -1.142750         0.198910
 H         1.492381         1.894758        -0.433798
 H         1.632346         1.886635         1.152848
 H         4.362959        -0.770204        -0.082704
 H         2.655653        -1.219109         2.036550
 H         3.075495        -2.954640        -0.259485
 H         1.293629        -2.791906        -0.025553
 H         2.632850         0.080607        -2.487525
