19
Iteration:  2149charge 0 multiplicity 1
 C        -0.137090        -0.087531         0.203176
 C         1.344491        -0.007312         0.256285
 C         1.959271         1.318806         0.243600
 O         3.371793         1.014136         0.275839
 C         3.354418        -0.385796        -0.082939
 C         2.354422        -1.202923         0.951990
 C         2.096698        -2.182936        -0.180877
 C         2.091524        -0.808455        -0.848066
 O         1.904660        -0.682963        -2.288221
 H        -0.500951         0.640532         0.819840
 H        -0.583432        -0.090196        -0.837429
 H        -0.412237        -1.116679         0.545883
 H         1.571953         2.003766        -0.465521
 H         1.588854         1.819699         1.167364
 H         4.314100        -0.748489        -0.225997
 H         2.523074        -1.182114         2.096675
 H         2.975962        -2.756432        -0.448815
 H         1.202628        -2.841240        -0.256442
 H         2.182912        -1.596027        -2.631290
