19
Iteration:  4759
 C        -0.176373        -0.025426         0.187086
 C         1.335175        -0.061836         0.172400
 C         1.855441         1.325928         0.172866
 O         3.272894         1.109054        -0.000059
 C         3.373140        -0.338079         0.002050
 C         2.346584        -1.027737         1.046641
 C         2.209581        -2.180275         0.020559
 C         2.162788        -0.943722        -0.809374
 O         1.948848        -0.973286        -2.248131
 H        -0.653236        -1.019568         0.107221
 H        -0.563941         0.292837         1.185089
 H        -0.578497         0.668090        -0.618912
 H         1.519687         1.748598        -0.751450
 H         1.759471         2.093868         0.946663
 H         4.463578        -0.774111        -0.101317
 H         2.412335        -1.142166         2.118883
 H         3.151111        -2.852987        -0.012448
 H         1.280677        -2.827954         0.202417
 H         2.432467        -0.203258        -2.536619
