19
Iteration:  4991
 C        -0.282248        -0.081362         0.459719
 C         1.273355        -0.104258         0.267506
 C         1.802417         1.287974         0.096998
 O         3.325796         1.051082        -0.133262
 C         3.280434        -0.364525         0.030114
 C         2.279429        -1.011362         1.029979
 C         2.161779        -2.174012        -0.024677
 C         2.193664        -0.950671        -0.942419
 O         2.212908        -0.793509        -2.242504
 H        -0.565758        -0.165328         1.535084
 H        -0.749985         0.903151         0.162100
 H        -0.817962        -0.690181        -0.323105
 H         1.314672         1.765104        -0.863021
 H         1.770505         1.811694         1.084591
 H         4.297264        -0.627745        -0.121186
 H         2.498309        -1.239093         2.181833
 H         2.982944        -2.943240        -0.014341
 H         1.215860        -2.754476        -0.009056
 H         2.983268        -0.257513        -2.557723
