19
Iteration:  4955charge 0 multiplicity 1
 C        -0.198995        -0.222552         0.327728
 C         1.268043        -0.075399         0.139292
 C         1.867930         1.319326         0.064129
 O         3.371737         1.056342        -0.017752
 C         3.308936        -0.356202         0.007280
 C         2.363917        -0.954308         1.005316
 C         2.059753        -2.173324         0.066584
 C         2.185885        -0.929142        -0.825793
 O         2.073835        -0.803606        -2.269841
 H        -0.499786        -0.880523         1.114487
 H        -0.609093         0.814234         0.481050
 H        -0.710496        -0.846617        -0.503230
 H         1.533089         2.102108        -0.707601
 H         1.637302         1.869660         1.015594
 H         4.384813        -0.856582        -0.028163
 H         2.468648        -1.084996         2.102721
 H         2.884167        -2.815800         0.075810
 H         1.039152        -2.539785         0.178480
 H         2.532267         0.038649        -2.472528
