19
Iteration:  3899charge 0 multiplicity 1
 C        -0.178048        -0.376472         0.343214
 C         1.311244        -0.096235         0.201330
 C         1.967933         1.276103         0.408260
 O         3.383394         0.991331         0.269654
 C         3.360850        -0.415603        -0.014992
 C         2.282997        -1.162449         0.862871
 C         2.029074        -2.142119        -0.312794
 C         2.223627        -0.761923        -0.964929
 O         1.969605        -0.479215        -2.333427
 H        -0.835170         0.505242         0.778898
 H        -0.710099        -0.535903        -0.634028
 H        -0.184878        -1.243281         1.062597
 H         1.636136         2.057453        -0.119502
 H         1.752381         1.516668         1.497793
 H         4.338188        -0.744811        -0.551403
 H         2.280940        -1.414093         1.913921
 H         2.807628        -2.937407        -0.281810
 H         1.028333        -2.481083        -0.405128
 H         2.321508         0.381386        -2.440530
