19
Iteration:  2489charge 0 multiplicity 1
 C        -0.212245        -0.121702         0.204796
 C         1.331269        -0.129445         0.199449
 C         1.877843         1.321473         0.265289
 O         3.356140         1.052447         0.049514
 C         3.373131        -0.421578        -0.019289
 C         2.343565        -1.125743         0.910476
 C         2.060891        -2.255292        -0.020555
 C         2.238878        -0.919435        -0.787283
 O         1.949916        -0.632724        -2.221756
 H        -0.651391         0.037747         1.126489
 H        -0.413991         0.882177        -0.317374
 H        -0.769023        -0.946769        -0.384652
 H         1.343045         1.965158        -0.533182
 H         1.817528         1.911535         1.188056
 H         4.493963        -0.730679        -0.125608
 H         2.562089        -1.233263         1.977753
 H         2.981508        -2.938372        -0.170587
 H         1.037419        -2.573346        -0.298836
 H         2.592405        -0.124836        -2.659249
