19
Iteration:  3859
 C        -0.210255        -0.311990         0.084494
 C         1.358846        -0.112257         0.253522
 C         1.984583         1.292368         0.493943
 O         3.415086         0.994333         0.310262
 C         3.398771        -0.357677        -0.094718
 C         2.374025        -1.236663         0.915860
 C         2.071021        -2.142130        -0.252936
 C         2.165382        -0.780279        -0.930501
 O         1.807569        -0.520034        -2.232981
 H        -0.840980         0.524664         0.341188
 H        -0.424097        -0.637356        -0.908035
 H        -0.411693        -1.218836         0.616598
 H         1.711839         2.079615        -0.402917
 H         1.918240         1.767237         1.477753
 H         4.449545        -0.632895        -0.298156
 H         2.570984        -1.445838         1.945715
 H         2.797207        -2.956279        -0.597377
 H         1.136103        -2.608848        -0.526647
 H         1.872613         0.474680        -2.431239
