19
Iteration:   680
 C        -0.152036         0.129271         0.273449
 C         1.323134        -0.033702         0.231075
 C         2.057877         1.294960         0.420191
 O         3.471291         0.918882         0.132631
 C         3.356332        -0.511607        -0.084406
 C         2.310435        -1.083408         0.945286
 C         1.900373        -2.150691        -0.130056
 C         2.147352        -0.879349        -0.985070
 O         2.007888        -0.777517        -2.319830
 H        -0.317611         1.031531         0.780852
 H        -0.623826         0.169119        -0.731762
 H        -0.665270        -0.657267         0.771917
 H         1.768830         2.108976        -0.250429
 H         1.787425         1.648859         1.457146
 H         4.270937        -1.107645        -0.156586
 H         2.444654        -1.232952         1.970423
 H         2.545760        -3.038409        -0.286131
 H         0.868751        -2.396149        -0.015126
 H         0.998386        -0.829604        -2.518008
