19
Iteration:  2504
 C        -0.192952        -0.193107         0.214224
 C         1.311736        -0.107069         0.262134
 C         1.993414         1.282830         0.233845
 O         3.374401         1.022575         0.075387
 C         3.332673        -0.389657        -0.032398
 C         2.275298        -1.026078         1.020568
 C         2.084701        -2.198723        -0.080973
 C         2.132323        -0.882024        -0.937239
 O         1.967269        -0.612053        -2.244435
 H        -0.635882        -0.365007         1.229233
 H        -0.657884         0.655433        -0.248716
 H        -0.520808        -1.077434        -0.274483
 H         1.672025         1.739224        -0.685497
 H         1.778134         1.842976         1.145717
 H         4.336230        -0.878391        -0.043642
 H         2.438122        -1.087948         2.123640
 H         2.848835        -2.920823        -0.196024
 H         1.170634        -2.795856         0.125010
 H         2.906114        -0.359937        -2.556583
