19
Iteration:  4478charge 0 multiplicity 1
 C        -0.128040        -0.305765         0.462538
 C         1.274704        -0.055775         0.124551
 C         1.877250         1.412993         0.214370
 O         3.339807         1.033103         0.034837
 C         3.292919        -0.396161        -0.021398
 C         2.314669        -1.033379         0.958414
 C         1.958985        -2.147263        -0.070100
 C         2.157823        -0.842424        -0.929943
 O         2.154418        -0.778768        -2.288174
 H        -0.624995        -0.718293        -0.507796
 H        -0.325134        -0.977733         1.316099
 H        -0.573644         0.605062         0.919557
 H         1.670503         2.127246        -0.607310
 H         1.815518         1.974674         1.116724
 H         4.341417        -0.563602        -0.088471
 H         2.221291        -1.053547         2.056419
 H         2.625133        -2.968157        -0.156656
 H         1.050823        -2.646553        -0.159435
 H         2.963794        -0.288042        -2.626888
