19
Iteration:  4386charge 0 multiplicity 1
 C        -0.248543        -0.188039         0.090817
 C         1.392268        -0.072308         0.214972
 C         1.970412         1.294038         0.365288
 O         3.351350         1.084867         0.169576
 C         3.384099        -0.345900        -0.021440
 C         2.384737        -1.088069         0.954441
 C         2.160748        -2.126303        -0.096725
 C         2.184084        -0.901961        -0.915421
 O         1.809447        -0.802181        -2.247057
 H        -0.607678        -1.102603         0.627443
 H        -0.732153         0.707250         0.434314
 H        -0.749463        -0.167120        -0.880062
 H         1.697225         2.013145        -0.445263
 H         1.677737         1.695036         1.288486
 H         4.468572        -0.695048         0.062571
 H         2.582676        -1.149349         2.028271
 H         3.044043        -2.726435        -0.158782
 H         1.301344        -2.826062        -0.131784
 H         2.061306         0.016316        -2.608663
