19
Iteration:  3863charge 0 multiplicity 1
 C        -0.176103        -0.334780         0.084390
 C         1.331153        -0.099622         0.283091
 C         1.998177         1.329383         0.469826
 O         3.415974         0.988995         0.314512
 C         3.403893        -0.392534        -0.049060
 C         2.382692        -1.190359         0.903037
 C         2.068657        -2.142458        -0.280378
 C         2.155902        -0.785863        -0.962803
 O         1.810352        -0.511307        -2.246512
 H        -0.896548         0.402719         0.457394
 H        -0.365647        -0.778828        -0.945642
 H        -0.593048        -1.274420         0.631856
 H         1.737799         2.072156        -0.294818
 H         1.929274         1.702251         1.488750
 H         4.373940        -0.663249        -0.376416
 H         2.605682        -1.425296         1.999249
 H         2.748125        -2.912447        -0.505139
 H         1.023860        -2.629052        -0.469338
 H         1.895922         0.412509        -2.364771
