19
Iteration:  4708charge 0 multiplicity 1
 C        -0.162133        -0.321232         0.194472
 C         1.330463        -0.009418         0.145484
 C         1.987011         1.413598         0.199305
 O         3.396614         1.069868         0.041804
 C         3.336722        -0.325993        -0.004623
 C         2.320677        -0.953699         1.001484
 C         2.041537        -2.101930         0.027687
 C         2.175066        -0.828201        -0.816551
 O         1.953854        -0.993732        -2.271897
 H        -0.530956        -1.137619         0.758812
 H        -0.864216         0.477980         0.379527
 H        -0.269121        -0.607905        -0.831738
 H         1.671537         2.303045        -0.436968
 H         2.006879         1.788206         1.220175
 H         4.296365        -0.707786        -0.090174
 H         2.445620        -0.965275         2.163721
 H         2.703089        -2.970843         0.024354
 H         1.135889        -2.585064         0.205310
 H         1.502715        -0.145663        -2.604900
