19
Iteration:  4159charge 0 multiplicity 1
 C        -0.210156        -0.169746         0.331728
 C         1.327853        -0.103838         0.204674
 C         1.843667         1.269664         0.331887
 O         3.287346         1.017984         0.164022
 C         3.326852        -0.436816        -0.018073
 C         2.399292        -1.130325         0.908219
 C         2.158286        -2.169739        -0.197827
 C         2.134021        -0.860146        -0.881877
 O         2.049705        -0.602319        -2.330344
 H        -0.860990         0.078980        -0.480956
 H        -0.538451        -1.235803         0.732070
 H        -0.527365         0.686131         1.019696
 H         1.574140         1.832749        -0.523790
 H         1.572862         1.884161         1.215499
 H         4.395449        -0.812820        -0.137935
 H         2.573567        -1.293022         1.924593
 H         2.987337        -2.926962        -0.502721
 H         1.128576        -2.743862        -0.222316
 H         2.595824         0.239132        -2.431702
