19
Iteration:   882
 C        -0.141182        -0.053063         0.053172
 C         1.401941        -0.049567         0.209027
 C         2.100582         1.254302         0.262105
 O         3.470439         0.880644         0.166596
 C         3.431324        -0.508918        -0.027839
 C         2.305907        -1.052412         1.017018
 C         1.890340        -2.184927        -0.088446
 C         2.179235        -0.891059        -0.890718
 O         1.787549        -0.593760        -2.193934
 H        -0.526451         0.812835         0.683499
 H        -0.311528         0.118222        -0.933242
 H        -0.738461        -0.914984         0.456248
 H         1.870297         1.800352        -0.719890
 H         1.825179         1.924508         1.101122
 H         4.401976        -0.980539        -0.197117
 H         2.492933        -1.254488         2.089611
 H         2.436222        -3.104529        -0.227322
 H         0.815830        -2.337152         0.075211
 H         1.645774         0.314684        -2.220995
