19
Iteration:  2792
 C        -0.111954        -0.087623         0.164966
 C         1.309733        -0.104213         0.218101
 C         1.940292         1.243994         0.239339
 O         3.339982         1.056404         0.246256
 C         3.287477        -0.351039        -0.035306
 C         2.288931        -1.100706         0.948892
 C         2.206682        -2.276699        -0.079805
 C         2.185799        -0.879381        -0.904162
 O         1.896742        -0.604301        -2.287806
 H        -0.517663         0.432889         1.149519
 H        -0.494788         0.511442        -0.675905
 H        -0.433803        -1.218794         0.162359
 H         1.636681         1.931058        -0.609634
 H         1.728753         1.796910         1.208175
 H         4.392550        -0.568939        -0.118623
 H         2.629287        -1.205592         1.991206
 H         3.146852        -2.954811        -0.154194
 H         1.207987        -2.800929        -0.002827
 H         1.682587        -1.332498        -2.828351
