19
Iteration:  2699
 C        -0.259447        -0.069597         0.469384
 C         1.315765        -0.181934         0.153432
 C         1.868749         1.278061         0.218040
 O         3.316231         1.081904         0.152963
 C         3.414371        -0.338732        -0.020771
 C         2.204992        -1.073982         0.884644
 C         2.102875        -2.258822        -0.143649
 C         2.211488        -0.949837        -0.935331
 O         2.200489        -0.657921        -2.323873
 H        -0.314368         0.352410         1.445211
 H        -0.580446         0.732914        -0.242013
 H        -0.745005        -1.020973         0.435347
 H         1.501268         2.082837        -0.380787
 H         1.651132         1.587387         1.174218
 H         4.427129        -0.690299        -0.137153
 H         2.268463        -1.222129         1.951201
 H         2.978422        -2.952669        -0.148452
 H         1.077993        -2.773083        -0.150887
 H         1.226523        -0.592475        -2.650089
