19
Iteration:  1023
 C        -0.146372        -0.034517         0.364191
 C         1.370201        -0.045783         0.252567
 C         2.085689         1.268853         0.238709
 O         3.442836         0.824155         0.101327
 C         3.340198        -0.566875        -0.050745
 C         2.224438        -1.137841         0.924072
 C         1.844605        -2.161707        -0.166735
 C         2.091637        -0.832478        -0.894432
 O         2.048303        -0.542329        -2.259379
 H        -0.676957        -0.151231        -0.612253
 H        -0.599287        -0.647641         1.026374
 H        -0.453650         1.047120         0.593983
 H         1.681653         1.770852        -0.615881
 H         1.964931         2.009800         1.061362
 H         4.377380        -0.830723        -0.116313
 H         2.326271        -1.271369         1.996926
 H         2.505351        -2.996823        -0.301817
 H         0.794656        -2.456582        -0.160210
 H         2.553526         0.280202        -2.278691
