19
Iteration:  3311charge 0 multiplicity 1
 C        -0.238518        -0.393692         0.197416
 C         1.317936        -0.043114         0.184716
 C         1.962534         1.377170         0.316377
 O         3.466109         1.072081         0.229263
 C         3.361928        -0.397625        -0.093747
 C         2.345287        -1.008077         0.941354
 C         1.996934        -2.182310        -0.096405
 C         2.156406        -0.836556        -0.921629
 O         1.939252        -0.714322        -2.267559
 H        -0.548531        -0.408225         1.229771
 H        -0.813480         0.442598        -0.424685
 H        -0.380263        -1.272049        -0.270752
 H         1.722817         2.059186        -0.459774
 H         1.825620         1.741688         1.234576
 H         4.332723        -0.795186        -0.316222
 H         2.464202        -0.981260         2.116798
 H         2.807761        -2.940426        -0.018258
 H         0.964890        -2.690152         0.030215
 H         2.362105         0.080566        -2.766280
