19
Iteration:  2826charge 0 multiplicity 1
 C        -0.211804        -0.117884         0.144534
 C         1.274707        -0.081807         0.214487
 C         1.971721         1.188325         0.270832
 O         3.382192         1.023188         0.183162
 C         3.347822        -0.331731         0.048683
 C         2.401979        -1.058831         0.979191
 C         2.167349        -2.142361        -0.192156
 C         2.141460        -0.811377        -0.898817
 O         1.853179        -0.693828        -2.213821
 H        -0.559277         0.514402         1.038430
 H        -0.500462         0.283949        -0.857264
 H        -0.688002        -1.207471         0.255416
 H         1.623840         1.822860        -0.582954
 H         1.646933         1.652670         1.287521
 H         4.302516        -0.909329        -0.026373
 H         2.606841        -1.252247         1.987613
 H         2.926860        -2.940504        -0.555304
 H         1.234245        -2.701388        -0.134444
 H         2.569962        -1.107067        -2.639312
