19
Iteration:  3245charge 0 multiplicity 1
 C        -0.321851        -0.027109         0.437958
 C         1.307713        -0.166587         0.241993
 C         1.843626         1.228310         0.300134
 O         3.309137         1.040344         0.124866
 C         3.326436        -0.388585        -0.056778
 C         2.376541        -1.117836         0.937015
 C         2.126215        -2.207070        -0.177039
 C         2.176577        -0.813521        -0.957895
 O         2.156345        -0.728219        -2.348726
 H        -0.491494         0.746358         1.120971
 H        -0.816103         0.160713        -0.584276
 H        -0.767364        -0.840804         0.842775
 H         1.390331         1.806846        -0.517946
 H         1.646016         1.793538         1.351788
 H         4.386664        -0.701033        -0.170152
 H         2.428154        -1.248164         2.085828
 H         2.976086        -2.853884        -0.378987
 H         1.154049        -2.853224        -0.232470
 H         2.678548         0.048405        -2.567727
