19
Iteration:  1503
 C        -0.265834        -0.101942         0.491792
 C         1.289573         0.001946         0.087865
 C         2.048667         1.257090         0.230988
 O         3.419172         0.940842         0.160187
 C         3.343556        -0.512448         0.040029
 C         2.222180        -1.014989         0.880987
 C         1.892174        -2.152734        -0.094005
 C         2.167615        -0.799300        -0.999893
 O         2.224873        -0.683165        -2.381155
 H        -0.379104         0.829922         0.957634
 H        -1.160376        -0.485120        -0.219776
 H        -0.191314        -0.905378         1.309313
 H         1.786701         2.040583        -0.531907
 H         1.908834         1.720159         1.243536
 H         4.419730        -0.963721        -0.133694
 H         2.129640        -1.188663         1.966643
 H         2.723398        -2.926515        -0.053062
 H         0.869667        -2.635297         0.012338
 H         1.279697        -0.588926        -2.603009
