19
Iteration:    85
 C        -0.143003         0.087199         0.295763
 C         1.349603         0.069120         0.163441
 C         2.203937         1.330868         0.331707
 O         3.545116         0.845035         0.140459
 C         3.286403        -0.586973         0.060068
 C         2.237505        -1.061071         0.923089
 C         1.836958        -2.076617        -0.151772
 C         2.048536        -0.823723        -0.917791
 O         1.927206        -0.862685        -2.339075
 H        -0.402487         0.601381         1.245008
 H        -0.747851         0.420572        -0.513410
 H        -0.471948        -1.016167         0.525034
 H         2.085848         2.071826        -0.565419
 H         2.130545         1.806842         1.368814
 H         4.217987        -1.071385        -0.060375
 H         2.277178        -1.215715         2.046015
 H         2.469652        -2.967252        -0.398804
 H         0.774300        -2.456257        -0.058418
 H         2.325632        -0.018692        -2.790517
