19
Iteration:   915
 C        -0.160207        -0.054689         0.142625
 C         1.362151         0.001568         0.183852
 C         2.168608         1.325900         0.355997
 O         3.486855         0.841620         0.121653
 C         3.330491        -0.562657         0.047311
 C         2.191656        -1.037814         0.971556
 C         2.049566        -2.185579        -0.131256
 C         2.100713        -0.848268        -0.874346
 O         1.791719        -0.643826        -2.284420
 H        -0.506054         1.042521         0.046861
 H        -0.425671        -0.523824        -0.711198
 H        -0.574082        -0.654518         0.989002
 H         2.001499         2.054070        -0.509471
 H         2.059522         1.934986         1.293499
 H         4.318187        -0.958635        -0.040685
 H         2.240556        -1.283235         2.031591
 H         2.898356        -2.846534        -0.251512
 H         1.133624        -2.767760         0.031807
 H         1.930600         0.317180        -2.546558
