19
Iteration:  1919
 C        -0.133305        -0.099770         0.219640
 C         1.351331        -0.102714         0.235022
 C         1.946883         1.275364         0.247513
 O         3.387163         0.949642         0.128245
 C         3.309167        -0.421076         0.011332
 C         2.250034        -1.105146         0.955167
 C         2.091154        -2.136651        -0.136780
 C         2.150272        -0.877161        -0.869133
 O         1.903270        -0.642565        -2.216309
 H        -0.460122         0.423687         1.074277
 H        -0.397379         0.292219        -0.804367
 H        -0.451276        -1.174384         0.111826
 H         1.658114         1.861583        -0.617621
 H         1.784478         1.950927         1.033393
 H         4.333973        -0.852907        -0.078397
 H         2.470038        -1.075091         2.100164
 H         3.009441        -2.618385        -0.359912
 H         1.257376        -2.847846        -0.208795
 H         2.606431        -0.121703        -2.710055
