19
Iteration:  2071charge 0 multiplicity 1
 C        -0.319362        -0.233325         0.374662
 C         1.293540        -0.048971         0.295251
 C         1.962396         1.298704         0.285198
 O         3.361531         0.988078         0.017718
 C         3.327040        -0.440602         0.003353
 C         2.328546        -1.042200         0.943983
 C         1.980321        -2.107420        -0.157060
 C         2.230720        -0.818441        -0.913772
 O         2.212790        -0.671161        -2.298093
 H        -0.645489        -0.392922         1.402814
 H        -0.823312         0.640626        -0.121305
 H        -0.480412        -1.220024        -0.117772
 H         1.429529         1.713960        -0.593361
 H         1.979712         1.902479         1.282687
 H         4.343089        -0.750703        -0.394698
 H         2.543925        -1.213686         2.133293
 H         2.707663        -2.904726        -0.269748
 H         0.887593        -2.465600        -0.198836
 H         1.296910        -0.520046        -2.542021
