19
Iteration:  2804
 C        -0.236177        -0.066387         0.167801
 C         1.348187        -0.109099         0.238820
 C         1.933412         1.369398         0.258866
 O         3.318780         1.038003         0.244680
 C         3.402459        -0.359481        -0.065871
 C         2.377508        -1.187659         0.983249
 C         2.212676        -2.238752        -0.088579
 C         2.181841        -0.892300        -0.924836
 O         1.859343        -0.616012        -2.248928
 H        -0.743727         0.548093         1.000121
 H        -0.388556         0.432284        -0.810953
 H        -0.884988        -1.055247         0.034153
 H         1.626001         1.870976        -0.709120
 H         1.556635         2.016154         1.165833
 H         4.394080        -0.846526        -0.228700
 H         2.433911        -1.428721         2.020639
 H         3.169399        -2.876153        -0.206845
 H         1.375017        -2.920141        -0.239812
 H         2.024964        -1.522635        -2.703346
