19
Iteration:  3900charge 0 multiplicity 1
 C        -0.190691        -0.373376         0.355297
 C         1.314718        -0.095115         0.201223
 C         1.963437         1.280136         0.407541
 O         3.378128         0.995554         0.269387
 C         3.357960        -0.417100        -0.016908
 C         2.284876        -1.159232         0.856786
 C         2.030524        -2.144469        -0.324066
 C         2.226630        -0.770922        -0.955706
 O         1.976851        -0.480074        -2.333207
 H        -0.797724         0.535947         0.775940
 H        -0.703651        -0.525533        -0.608412
 H        -0.202003        -1.238426         1.042081
 H         1.652174         2.060091        -0.120714
 H         1.756869         1.506140         1.498276
 H         4.340912        -0.752103        -0.552315
 H         2.290507        -1.428507         1.886479
 H         2.802066        -2.979132        -0.279215
 H         1.047336        -2.501229        -0.384476
 H         2.338861         0.389990        -2.450451
