19
Iteration:  3959
 C        -0.248091        -0.132845         0.546105
 C         1.261966        -0.123814         0.232352
 C         1.877222         1.198082         0.474423
 O         3.293210         1.034033         0.188440
 C         3.316556        -0.371671         0.006406
 C         2.301151        -1.170837         0.786397
 C         2.133627        -2.224122        -0.387848
 C         2.186048        -0.853653        -1.006525
 O         2.151962        -0.545769        -2.403913
 H        -0.329162        -0.040401         1.616709
 H        -0.905438         0.439745        -0.081035
 H        -0.611049        -1.163573         0.499129
 H         1.449124         1.969595        -0.209345
 H         1.835152         1.549806         1.468752
 H         4.284113        -0.724909        -0.193691
 H         2.430927        -1.235396         1.930282
 H         3.082806        -2.800643        -0.511357
 H         1.075953        -2.789259        -0.402809
 H         2.675604         0.279749        -2.417253
