19
Iteration:  1908charge 0 multiplicity 1
 C        -0.177239        -0.120675         0.281932
 C         1.318752        -0.108831         0.290082
 C         1.960123         1.270840         0.159527
 O         3.391770         1.010108         0.147674
 C         3.372150        -0.446703         0.055063
 C         2.328812        -1.071070         0.960678
 C         2.037436        -2.184863        -0.196453
 C         2.141402        -0.784427        -0.905298
 O         1.968136        -0.691112        -2.258190
 H        -0.741387         0.301069         1.069093
 H        -0.573110         0.543431        -0.543393
 H        -0.691971        -1.118863         0.269828
 H         1.678872         1.637628        -0.813708
 H         1.680257         1.861649         0.968887
 H         4.366372        -0.908856        -0.119345
 H         2.373431        -1.447710         2.063793
 H         2.823822        -2.913978        -0.199396
 H         1.054234        -2.685249        -0.111205
 H         2.548319         0.124455        -2.482327
