19
Iteration:  3261charge 0 multiplicity 1
 C        -0.228932        -0.063732         0.398988
 C         1.244558        -0.153820         0.239209
 C         1.909606         1.279211         0.344615
 O         3.288308         1.116200         0.049614
 C         3.358607        -0.321256        -0.026527
 C         2.236166        -1.184439         0.906309
 C         2.127873        -2.209378        -0.235511
 C         2.186162        -0.887573        -0.886638
 O         2.153407        -0.770325        -2.276071
 H        -0.308163         0.777607         1.172006
 H        -0.656142         0.307373        -0.495465
 H        -0.676837        -1.160907         0.657821
 H         1.580868         1.909417        -0.495805
 H         1.841834         1.704679         1.439706
 H         4.394789        -0.601292        -0.231445
 H         2.361664        -1.482795         1.910934
 H         2.979395        -2.893681        -0.443071
 H         1.165730        -2.595640        -0.243285
 H         2.293528         0.137263        -2.459806
