19
Iteration:  4092charge 0 multiplicity 1
 C        -0.148179        -0.291231         0.403965
 C         1.276081        -0.126375         0.230869
 C         1.905519         1.296976         0.475834
 O         3.326620         1.069634         0.161074
 C         3.319432        -0.355697        -0.080348
 C         2.303486        -1.082901         0.864647
 C         1.986540        -2.131923        -0.237200
 C         2.162284        -0.808673        -0.985536
 O         2.172798        -0.696219        -2.366658
 H        -0.703789        -1.189061         0.027664
 H        -0.408583        -0.535477         1.529087
 H        -0.739199         0.683169         0.168481
 H         1.634498         1.944785        -0.295448
 H         1.749386         1.832569         1.435124
 H         4.321952        -0.802687        -0.321670
 H         2.450293        -1.286644         1.977758
 H         2.687050        -3.004575        -0.429883
 H         0.865221        -2.647254        -0.250968
 H         2.547967         0.179522        -2.547025
