19
Iteration:  3942charge 0 multiplicity 1
 C        -0.206646        -0.143283         0.592457
 C         1.274777        -0.204614         0.257653
 C         1.858903         1.243793         0.465200
 O         3.229199         1.001357         0.206117
 C         3.295694        -0.388035        -0.159436
 C         2.276929        -1.219194         0.885315
 C         2.160230        -2.212276        -0.366302
 C         2.188115        -0.767682        -1.042911
 O         2.214452        -0.532708        -2.365090
 H        -0.520314         0.643532         1.397863
 H        -0.632509         0.370320        -0.348327
 H        -0.950300        -0.939277         0.873594
 H         1.461912         2.035141        -0.292243
 H         1.639166         1.676274         1.508330
 H         4.358317        -0.797878        -0.273902
 H         2.440744        -1.777674         1.783770
 H         3.031787        -2.820892        -0.543902
 H         1.218892        -2.646991        -0.413969
 H         2.731837         0.201677        -2.658295
