19
Iteration:  1639charge 0 multiplicity 1
 C        -0.051925        -0.144827         0.291632
 C         1.411647        -0.027862         0.240835
 C         2.024538         1.331061         0.225125
 O         3.346998         1.003800         0.216803
 C         3.342108        -0.471513        -0.061431
 C         2.244187        -1.079899         1.001823
 C         1.880157        -2.172338        -0.067934
 C         2.184888        -0.839989        -0.964749
 O         2.055647        -0.656421        -2.340188
 H        -0.591124        -0.358210         1.389656
 H        -0.658948         0.690562        -0.077979
 H        -0.542042        -0.860325        -0.433832
 H         1.681065         1.862191        -0.804917
 H         1.701846         2.006932         1.108226
 H         4.365199        -0.793710        -0.246252
 H         2.420856        -1.322530         2.092450
 H         2.551165        -2.986402        -0.304733
 H         0.854257        -2.517973         0.016549
 H         1.412742        -1.258455        -2.668244
