19
Iteration:  2693
 C        -0.193655        -0.052022         0.433196
 C         1.334007        -0.173797         0.156318
 C         1.896544         1.252171         0.181584
 O         3.290827         1.049499         0.163963
 C         3.324239        -0.346335        -0.005028
 C         2.240022        -1.091764         0.943262
 C         2.112058        -2.244931        -0.153493
 C         2.234523        -0.903232        -0.942102
 O         2.138880        -0.656053        -2.317898
 H        -0.363731         0.358084         1.520562
 H        -0.523348         0.638443        -0.354722
 H        -0.574543        -1.096991         0.334040
 H         1.595302         2.178573        -0.457179
 H         1.586589         1.719881         1.259563
 H         4.370976        -0.693624        -0.110702
 H         2.126256        -1.400993         2.019912
 H         3.108695        -2.685279        -0.158272
 H         1.171229        -2.786486        -0.138646
 H         1.314999        -0.659229        -2.744255
