19
Iteration:  3339
 C        -0.123793        -0.186785         0.205037
 C         1.363341        -0.131481         0.249151
 C         1.891235         1.267794         0.195166
 O         3.355806         1.034886         0.156705
 C         3.318138        -0.392531         0.066970
 C         2.368833        -1.120197         1.016081
 C         2.133298        -2.095102        -0.163602
 C         2.179478        -0.797994        -0.908067
 O         1.849757        -0.707684        -2.262092
 H        -0.506935        -0.674424         1.153169
 H        -0.332548         0.802064        -0.130669
 H        -0.481918        -0.870032        -0.682901
 H         1.568806         1.980855        -0.660144
 H         1.698663         1.959557         1.269113
 H         4.421309        -0.675269        -0.031403
 H         2.231016        -1.311468         2.032558
 H         2.895457        -2.870794        -0.234262
 H         1.188442        -2.672466        -0.037322
 H         2.509900        -0.278775        -2.838516
