19
Iteration:   961
 C        -0.171411         0.043316         0.495198
 C         1.377087         0.020135         0.174667
 C         2.010255         1.297041         0.414650
 O         3.393270         0.943980         0.196891
 C         3.359577        -0.446368        -0.041839
 C         2.291026        -1.158886         0.878152
 C         1.758228        -2.104235        -0.207044
 C         2.089063        -0.885849        -1.033163
 O         2.158695        -0.852796        -2.418639
 H        -0.608576         0.801852        -0.279145
 H        -0.680378        -0.927711         0.588637
 H        -0.159201         0.419419         1.488677
 H         1.668227         2.194433        -0.232967
 H         1.975538         1.636756         1.458359
 H         4.387322        -0.805570        -0.128682
 H         2.423038        -1.187580         1.924761
 H         2.211052        -3.109515        -0.411694
 H         0.691038        -2.341131        -0.259410
 H         2.751034        -0.184124        -2.698813
