19
Iteration:  4003
 C        -0.178542        -0.401597         0.244271
 C         1.309733        -0.079668         0.281894
 C         1.965281         1.310184         0.412874
 O         3.405680         1.053454         0.294750
 C         3.397141        -0.421704        -0.076036
 C         2.378946        -1.085657         0.892716
 C         2.003657        -2.152661        -0.280099
 C         2.142170        -0.786229        -0.940924
 O         1.922674        -0.576360        -2.301172
 H        -0.355598        -1.106861         1.050084
 H        -0.740243         0.471740        -0.070335
 H        -0.174683        -0.912120        -0.749011
 H         1.701904         2.041032        -0.275984
 H         1.676851         1.674780         1.367040
 H         4.400792        -0.640652        -0.181334
 H         2.567438        -1.410223         2.003646
 H         2.693712        -2.996509        -0.561972
 H         0.839503        -2.564561        -0.247967
 H         1.969711         0.372226        -2.563539
