19
Iteration:  4277
 C        -0.228680        -0.192411         0.502202
 C         1.262662        -0.116956         0.214050
 C         1.883618         1.233733         0.242290
 O         3.309117         1.024032         0.142335
 C         3.311192        -0.340394        -0.008276
 C         2.286515        -1.115277         0.873346
 C         2.128948        -2.232267        -0.219027
 C         2.148814        -0.801955        -0.936761
 O         2.171696        -0.684719        -2.331091
 H        -0.338755         0.953659         1.129819
 H        -0.751724         0.026371        -0.466113
 H        -0.573854        -0.959842         1.223711
 H         1.563178         1.978614        -0.575575
 H         1.621744         1.834360         1.191500
 H         4.336835        -0.746077        -0.154273
 H         2.464356        -1.215749         1.959265
 H         2.925225        -2.879317        -0.325137
 H         1.143871        -2.753332        -0.344247
 H         2.453376         0.259901        -2.560453
