19
Iteration:  1359charge 0 multiplicity 1
 C        -0.140312         0.008637         0.514951
 C         1.335574        -0.063678         0.137085
 C         2.069707         1.289080         0.216899
 O         3.421481         0.928953         0.087215
 C         3.261657        -0.477019         0.006373
 C         2.177936        -1.045489         0.948040
 C         1.873309        -2.167513        -0.067227
 C         2.115221        -0.894981        -0.929978
 O         2.186086        -0.753573        -2.397656
 H        -0.248900        -0.151090         1.520844
 H        -0.431424         1.079221         0.266388
 H        -0.768009        -0.487545        -0.175894
 H         1.691383         1.778720        -0.660289
 H         1.771099         1.742552         1.143512
 H         4.260004        -0.966700        -0.023494
 H         2.276893        -1.110742         2.032922
 H         2.760373        -2.798709        -0.297027
 H         0.915107        -2.725229        -0.095924
 H         1.797027         0.183530        -2.587523
