19
Iteration:  4963
 C        -0.181820        -0.179166         0.341206
 C         1.333811        -0.083479         0.129887
 C         1.861837         1.335314         0.080606
 O         3.298812         1.053881        -0.056000
 C         3.294712        -0.416899         0.031918
 C         2.309695        -0.977996         1.047811
 C         2.120414        -2.171806         0.059219
 C         2.154028        -0.943826        -0.892094
 O         2.116838        -0.768683        -2.231808
 H        -0.469066        -0.688490         1.309169
 H        -0.587610         0.814743         0.461348
 H        -0.786532        -0.671861        -0.406658
 H         1.471049         1.841918        -0.756320
 H         1.703315         1.910192         0.979150
 H         4.364735        -0.610196        -0.203253
 H         2.387653        -0.983214         2.057401
 H         2.800512        -3.018536         0.001325
 H         1.181884        -2.739133         0.159413
 H         2.625745        -0.019148        -2.508557
