19
Iteration:  1098
 C        -0.154437         0.073993         0.189896
 C         1.356098        -0.006797         0.155744
 C         2.141313         1.299368         0.424542
 O         3.498755         0.876288         0.252265
 C         3.353647        -0.473588         0.016822
 C         2.236441        -1.113604         0.888278
 C         1.973341        -2.193391        -0.157407
 C         2.157866        -0.851902        -0.963477
 O         1.796398        -0.668565        -2.348385
 H        -0.627951         0.294168        -0.757735
 H        -0.680294        -0.739172         0.655408
 H        -0.431967         0.920466         0.920418
 H         1.984547         2.207449        -0.124145
 H         2.090240         1.588498         1.492774
 H         4.346134        -0.846884         0.005013
 H         2.183443        -1.240330         1.968385
 H         2.782595        -2.857343        -0.344556
 H         1.062982        -2.761909        -0.075566
 H         1.849913        -1.547688        -2.780312
