19
Iteration:  1078
 C        -0.168077        -0.022928         0.041931
 C         1.348410         0.027331         0.213148
 C         2.209407         1.295753         0.451047
 O         3.604934         0.835501         0.216851
 C         3.300074        -0.541717        -0.017855
 C         2.206853        -1.059839         0.977567
 C         2.031205        -2.125236        -0.155225
 C         2.072634        -0.807774        -0.942924
 O         1.700846        -0.619224        -2.244177
 H        -0.223714        -0.283590        -1.050809
 H        -0.534027        -0.777524         0.580705
 H        -0.778633         0.887713         0.402999
 H         1.789958         2.000438        -0.241066
 H         2.030793         1.540405         1.522810
 H         4.210597        -1.095109        -0.320709
 H         2.314618        -1.133896         2.043326
 H         2.896413        -2.765421        -0.214255
 H         1.166541        -2.783178        -0.236591
 H         2.278227        -1.083869        -2.777123
