19
Iteration:  1572charge 0 multiplicity 1
 C        -0.128079        -0.025041         0.167739
 C         1.373478        -0.096499         0.193615
 C         2.023813         1.251153         0.329368
 O         3.387291         1.001877         0.124204
 C         3.372081        -0.461046        -0.046756
 C         2.290684        -1.061706         0.978810
 C         1.991046        -2.217648        -0.067782
 C         2.144100        -0.905622        -0.870420
 O         1.867340        -0.645161        -2.269013
 H        -0.530538         0.414311         1.190218
 H        -0.504532         0.590837        -0.675031
 H        -0.547591        -1.053752        -0.116165
 H         1.619852         2.033320        -0.422823
 H         1.782633         1.788530         1.309417
 H         4.336386        -0.817213        -0.228914
 H         2.456081        -1.145848         2.043948
 H         2.778938        -2.949672        -0.247329
 H         1.044221        -2.671254         0.160547
 H         2.733419        -0.552199        -2.832535
