19
Iteration:  4578
 C        -0.107551        -0.355961         0.146506
 C         1.350337        -0.017795         0.169147
 C         1.932698         1.414174         0.241865
 O         3.402612         1.027820         0.152589
 C         3.358876        -0.336823        -0.023743
 C         2.381857        -0.937233         0.938721
 C         2.022940        -2.142772         0.039306
 C         2.156189        -0.868777        -0.873008
 O         1.852563        -0.784236        -2.251541
 H        -0.720178         0.753753         0.269123
 H        -0.427975        -0.933823        -0.803234
 H        -0.440026        -1.148203         0.963679
 H         1.730581         2.065719        -0.660684
 H         1.658925         1.939739         1.145135
 H         4.311751        -0.682773        -0.192160
 H         2.560888        -0.869428         2.108642
 H         2.760293        -2.866745        -0.313621
 H         1.044490        -2.488719         0.126088
 H         2.345177        -1.568578        -2.644045
