19
Iteration:   513charge 0 multiplicity 1
 C        -0.164375         0.077851         0.293150
 C         1.347111         0.051769         0.117366
 C         2.116765         1.318443         0.357552
 O         3.519435         0.899379         0.168006
 C         3.352598        -0.529508        -0.040512
 C         2.349075        -1.077818         0.915013
 C         1.748163        -2.152671         0.037473
 C         2.064220        -0.868685        -0.958705
 O         2.045998        -0.828946        -2.398125
 H        -0.472373         0.259448         1.338110
 H        -0.569748         0.838424        -0.435066
 H        -0.615779        -0.876830         0.065530
 H         2.044259         2.138649        -0.346779
 H         1.989547         1.692487         1.387407
 H         4.351412        -1.021572        -0.349858
 H         2.322536        -0.947646         2.025363
 H         2.361080        -3.056815        -0.252410
 H         0.683426        -2.496026         0.306111
 H         1.162567        -0.350080        -2.640997
