19
Iteration:  3026
 C        -0.248504        -0.089841         0.226558
 C         1.296920        -0.161145         0.290373
 C         1.851079         1.230861         0.266480
 O         3.364164         0.967972         0.061881
 C         3.337332        -0.384768         0.015643
 C         2.384804        -1.110533         0.993073
 C         2.207227        -2.177536        -0.103766
 C         2.157064        -0.902360        -0.860351
 O         1.971544        -0.600106        -2.316579
 H        -0.616629         0.655083         0.935386
 H        -0.523980         0.461066        -0.821958
 H        -0.806888        -0.986650         0.321072
 H         1.326316         1.758657        -0.641294
 H         1.662440         1.817856         1.203063
 H         4.374489        -0.839428        -0.093152
 H         2.467361        -0.986774         2.165797
 H         2.996314        -2.793237        -0.297569
 H         1.263051        -2.800730        -0.127620
 H         2.707018         0.114575        -2.427292
