19
Iteration:    60charge 0 multiplicity 1
 C        -0.159950         0.091700         0.188500
 C         1.370201         0.013249         0.169907
 C         2.197746         1.274114         0.314393
 O         3.613271         0.854846         0.174095
 C         3.359092        -0.589913        -0.141780
 C         2.108564        -1.044961         0.920514
 C         1.858696        -2.187344         0.051638
 C         2.146013        -0.927887        -0.928296
 O         1.881304        -0.649616        -2.288508
 H        -0.556257         0.799950         0.902151
 H        -0.603181         0.284979        -0.815760
 H        -0.562676        -0.846359         0.417910
 H         1.968650         2.049870        -0.553859
 H         2.156346         1.699837         1.334384
 H         4.345760        -1.107966        -0.066950
 H         2.217976        -0.975922         2.037501
 H         2.589796        -3.018847         0.033860
 H         0.856605        -2.649736         0.010894
 H         1.172579         0.073638        -2.294123
