19
Iteration:  1462
 C        -0.173128        -0.046384         0.226942
 C         1.345172        -0.048506         0.321616
 C         2.039906         1.302084         0.207255
 O         3.397332         0.898037         0.082385
 C         3.390026        -0.480161        -0.010518
 C         2.322755        -1.182429         0.972370
 C         1.921041        -2.143279        -0.150656
 C         2.091428        -0.798196        -0.820556
 O         2.022594        -0.565243        -2.221161
 H        -0.764665         0.874045         0.405224
 H        -0.388712        -0.144907        -0.796440
 H        -0.647517        -0.826012         0.860987
 H         1.651849         1.818901        -0.698676
 H         1.788609         2.046730         0.927240
 H         4.379778        -0.952100        -0.137862
 H         2.586226        -1.348053         2.010202
 H         2.702590        -2.840669        -0.315489
 H         0.992424        -2.640968        -0.273052
 H         1.792656        -1.394588        -2.633914
