19
Iteration:  3893charge 0 multiplicity 1
 C        -0.123477        -0.392535         0.273683
 C         1.315086        -0.102913         0.190729
 C         1.986940         1.236684         0.451176
 O         3.411568         0.965162         0.268178
 C         3.379823        -0.403484        -0.023236
 C         2.273303        -1.168786         0.901197
 C         2.012814        -2.111218        -0.240308
 C         2.171728        -0.713531        -1.010911
 O         1.929279        -0.479823        -2.329561
 H        -0.825636         0.203541         0.758277
 H        -0.603811        -0.682765        -0.646008
 H        -0.230158        -1.185856         0.990803
 H         1.541346         2.144376        -0.298158
 H         1.793923         1.626847         1.440013
 H         4.361525        -0.744101        -0.283691
 H         2.277375        -1.308014         2.005377
 H         2.881369        -2.793212        -0.452102
 H         0.968616        -2.468861        -0.480801
 H         2.242383         0.464228        -2.481641
