19
Iteration:  1862
 C        -0.097362        -0.156724         0.492011
 C         1.294307        -0.068861         0.087888
 C         1.966954         1.338298         0.293590
 O         3.387545         0.972243         0.133697
 C         3.281781        -0.437541         0.018261
 C         2.124689        -1.005726         0.946727
 C         1.994040        -2.105920        -0.117161
 C         2.106404        -0.874830        -0.997389
 O         2.263475        -0.774720        -2.394626
 H        -0.300039        -0.207850         1.582936
 H        -0.866276         0.529110         0.150285
 H        -0.464825        -1.128282         0.315327
 H         1.737865         2.014019        -0.477943
 H         1.849575         1.680044         1.298697
 H         4.264658        -0.880947         0.000117
 H         2.002438        -0.844964         2.000440
 H         2.773879        -2.689496        -0.457050
 H         1.042321        -2.579804        -0.121882
 H         1.559716        -0.171889        -2.735323
