19
Iteration:  3173charge 0 multiplicity 1
 C        -0.139565        -0.258979         0.173309
 C         1.338672        -0.059181         0.241374
 C         1.912264         1.329786         0.297478
 O         3.337365         1.024117         0.119280
 C         3.373384        -0.430059        -0.005216
 C         2.319236        -1.085721         0.985642
 C         2.091697        -2.180272        -0.058544
 C         2.145978        -0.812510        -0.891788
 O         1.919965        -0.644837        -2.273763
 H        -0.683027        -0.028636         1.177958
 H        -0.481429         0.369393        -0.656600
 H        -0.422472        -1.383450        -0.173127
 H         1.614219         1.839426        -0.699988
 H         1.814803         1.895766         1.158931
 H         4.329268        -0.861582        -0.175936
 H         2.489543        -1.039882         2.068398
 H         2.953706        -2.884194        -0.313359
 H         1.191071        -2.714376        -0.097553
 H         2.623684        -0.145603        -2.641158
