19
Iteration:  2959charge 0 multiplicity 1
 C        -0.158083        -0.271990         0.300488
 C         1.296236        -0.045178         0.210478
 C         1.956569         1.440341         0.385777
 O         3.403892         1.016188         0.205052
 C         3.358898        -0.346957        -0.044388
 C         2.244949        -1.082107         0.963467
 C         2.062651        -2.145603        -0.154588
 C         2.147269        -0.788235        -0.961725
 O         2.004573        -0.863093        -2.353864
 H        -0.624383        -0.167046         1.295838
 H        -0.807027         0.385984        -0.379813
 H        -0.432278        -1.287799        -0.042980
 H         1.756546         2.020982        -0.541869
 H         1.843461         2.010522         1.246572
 H         4.357855        -0.712577        -0.157042
 H         2.322805        -1.116279         2.032388
 H         2.807213        -2.885913        -0.385604
 H         1.122752        -2.643326        -0.297615
 H         2.270354        -0.032290        -2.702975
