19
Iteration:  3251
 C        -0.288427        -0.042678         0.381610
 C         1.293742        -0.166964         0.254101
 C         1.914862         1.211401         0.315212
 O         3.285777         1.074646         0.099462
 C         3.369593        -0.300617        -0.051198
 C         2.318459        -1.158364         0.952884
 C         2.107777        -2.218841        -0.232558
 C         2.160543        -0.851616        -0.942686
 O         2.168979        -0.738793        -2.302277
 H        -0.502765         0.771343         1.223796
 H        -0.927288         0.304957        -0.420251
 H        -0.948755        -0.887376         0.993977
 H         1.376198         1.910082        -0.394335
 H         1.710285         1.794298         1.159047
 H         4.382687        -0.714056        -0.219806
 H         2.424647        -1.368279         1.963153
 H         2.976341        -2.915164        -0.333855
 H         1.227163        -2.851600        -0.112454
 H         2.544588         0.058310        -2.671283
