19
Iteration:  2133charge 0 multiplicity 1
 C        -0.202749        -0.111848         0.208376
 C         1.325665        -0.122779         0.247767
 C         2.002271         1.349419         0.381839
 O         3.423109         1.080465         0.227326
 C         3.367857        -0.341173         0.084348
 C         2.349381        -1.102017         0.927835
 C         2.112437        -2.168903        -0.225098
 C         2.123837        -0.834816        -0.970913
 O         1.888213        -0.764275        -2.321987
 H        -0.796741         0.572936         0.998467
 H        -0.444258         0.287838        -0.754025
 H        -0.726901        -1.060054         0.349495
 H         1.579711         1.826964        -0.622530
 H         1.839730         1.951930         1.283487
 H         4.422627        -0.757272        -0.175689
 H         2.428691        -1.496693         1.931228
 H         2.952504        -2.895494        -0.472650
 H         1.111237        -2.687642        -0.150786
 H         1.764450        -1.658208        -2.639189
