19
Iteration:  2874
 C        -0.225241        -0.306607         0.367106
 C         1.263223        -0.092544         0.179953
 C         1.987523         1.301486         0.265012
 O         3.399527         1.030576         0.081649
 C         3.324163        -0.448762        -0.029103
 C         2.304446        -1.041288         0.985751
 C         1.997409        -2.060189        -0.096025
 C         2.079447        -0.848718        -0.943122
 O         2.105244        -0.670490        -2.328648
 H        -0.470511         0.078988         1.306224
 H        -0.703114         0.124393        -0.576128
 H        -0.383302        -1.332039         0.363315
 H         1.551134         2.115055        -0.344896
 H         1.805920         1.563110         1.489977
 H         4.309918        -0.849896        -0.288417
 H         2.459215        -1.049493         2.119573
 H         2.761458        -2.758214        -0.213883
 H         0.974425        -2.496153        -0.125954
 H         2.898771        -0.047963        -2.462594
