19
Iteration:  2604charge 0 multiplicity 1
 C        -0.253954        -0.158543         0.153510
 C         1.280360        -0.143554         0.220324
 C         1.968043         1.249644         0.363568
 O         3.409836         1.076131         0.095871
 C         3.366564        -0.344211        -0.066714
 C         2.263659        -1.156000         0.988392
 C         2.137980        -2.204273        -0.071873
 C         2.195263        -0.815762        -0.928708
 O         1.981684        -0.610284        -2.261542
 H        -0.481978         0.618960         1.006165
 H        -0.712845         0.362302        -0.625116
 H        -0.662080        -1.031488         0.481679
 H         1.531415         2.001252        -0.283021
 H         1.879545         1.811191         1.344243
 H         4.284409        -0.795002        -0.283007
 H         2.233674        -1.286436         2.067592
 H         3.009028        -2.764819        -0.233823
 H         1.265195        -2.820985        -0.112354
 H         1.950937        -1.519455        -2.539162
