19
Iteration:  3435charge 0 multiplicity 1
 C        -0.173371        -0.304877         0.385808
 C         1.353942        -0.075389         0.182230
 C         1.944575         1.309833         0.256775
 O         3.335041         1.024063         0.124741
 C         3.337261        -0.365837         0.004681
 C         2.320013        -1.009391         0.941676
 C         1.948965        -2.094365        -0.124536
 C         2.092353        -0.816132        -0.946672
 O         2.136011        -0.765660        -2.341487
 H        -0.279628        -0.853684         1.387094
 H        -0.711626         0.616712         0.484897
 H        -0.531979        -0.984176        -0.507965
 H         1.643168         2.022930        -0.436591
 H         1.762569         1.711302         1.160485
 H         4.379267        -0.893415        -0.112442
 H         2.261808        -1.092638         2.016522
 H         2.743090        -2.918093        -0.284590
 H         0.962182        -2.463566         0.130364
 H         2.404890         0.142700        -2.697919
