19
Iteration:   416
 C        -0.196248         0.064752         0.265029
 C         1.401550         0.067056         0.126115
 C         2.286896         1.395718         0.326632
 O         3.518152         0.844367         0.086577
 C         3.259885        -0.551300         0.010514
 C         2.192598        -1.096865         0.981976
 C         1.837827        -2.162337        -0.083353
 C         2.064447        -0.868490        -0.934026
 O         1.909978        -0.771309        -2.268033
 H        -0.685901         0.593485         1.101866
 H        -0.684883         0.436409        -0.724161
 H        -0.455617        -0.944619         0.400710
 H         2.061985         2.203752        -0.390056
 H         2.165071         1.735321         1.320525
 H         4.202284        -1.214063        -0.122781
 H         2.344694        -1.274415         2.054678
 H         2.619665        -2.916323        -0.278972
 H         0.815352        -2.626003        -0.070629
 H         2.655752        -0.202573        -2.627205
