19
Iteration:  1262
 C        -0.100771         0.079661         0.122022
 C         1.353807        -0.024334         0.087466
 C         2.108486         1.255087         0.403460
 O         3.540575         0.945030         0.235406
 C         3.422782        -0.473794         0.056940
 C         2.237081        -1.070167         0.940671
 C         1.984234        -2.161779        -0.047478
 C         2.123101        -0.867402        -0.995820
 O         1.671369        -0.703374        -2.303000
 H        -0.514512         0.855256         0.798634
 H        -0.568713         0.056992        -0.924485
 H        -0.401724        -0.994762         0.517807
 H         1.886578         2.092485        -0.386931
 H         1.859492         1.556391         1.426794
 H         4.469523        -0.880176        -0.057818
 H         2.432670        -1.099760         2.012651
 H         2.831868        -2.790931        -0.228275
 H         1.146697        -2.840769         0.068671
 H         1.970579        -1.514145        -2.873488
