19
Iteration:  3972
 C        -0.197293        -0.295344         0.500907
 C         1.284476        -0.135873         0.158206
 C         1.926884         1.237864         0.464420
 O         3.326135         1.017806         0.185962
 C         3.339879        -0.424275         0.008294
 C         2.293657        -1.099352         0.921313
 C         2.109079        -2.139027        -0.336679
 C         2.124464        -0.748358        -1.013079
 O         2.104806        -0.558874        -2.405327
 H        -0.409963        -0.226283         1.526327
 H        -0.732227         0.591826         0.107334
 H        -0.524226        -1.163831        -0.081167
 H         1.526460         2.143645        -0.209466
 H         1.683562         1.424493         1.490368
 H         4.320501        -0.802287        -0.099835
 H         2.306984        -1.553480         1.963386
 H         2.867390        -2.892568        -0.567800
 H         1.115225        -2.778818        -0.317803
 H         2.432644         0.319963        -2.670681
