19
Iteration:  1946charge 0 multiplicity 1
 C        -0.274839        -0.152114         0.083816
 C         1.311251        -0.116977         0.155117
 C         2.023593         1.267232         0.425438
 O         3.448801         1.028735         0.105283
 C         3.384777        -0.393562         0.018561
 C         2.356930        -1.069225         0.909381
 C         2.067658        -2.207235         0.004436
 C         2.140737        -0.875648        -0.922584
 O         1.834504        -0.581976        -2.262098
 H        -0.751008         0.557409         0.845078
 H        -0.449756         0.106558        -0.934884
 H        -0.553414        -1.190411         0.180769
 H         1.771627         2.194116        -0.124018
 H         1.885474         1.500612         1.525622
 H         4.356897        -0.796556        -0.197582
 H         2.441439        -1.064797         1.920770
 H         3.043189        -2.884643         0.048988
 H         1.209719        -2.850323         0.181691
 H         2.438958        -0.993357        -2.950495
