19
Iteration:  3948
 C        -0.245416        -0.140899         0.588956
 C         1.245792        -0.211666         0.259655
 C         1.868953         1.273605         0.481160
 O         3.250833         1.007636         0.202254
 C         3.312321        -0.380909        -0.137665
 C         2.274806        -1.221444         0.798618
 C         2.158107        -2.196105        -0.346588
 C         2.209985        -0.814334        -1.049112
 O         2.192560        -0.544538        -2.350112
 H        -0.332657         0.560940         1.382533
 H        -0.692619         0.520821        -0.134421
 H        -0.783593        -1.084463         0.672391
 H         1.421818         2.038182        -0.236968
 H         1.730243         1.660624         1.465258
 H         4.330725        -0.658811        -0.129567
 H         2.415063        -1.505948         1.909028
 H         2.997903        -2.895960        -0.602347
 H         1.193373        -2.874806        -0.514474
 H         2.782853         0.277250        -2.514636
