19
Iteration:   842charge 0 multiplicity 1
 C        -0.276871         0.011857         0.389232
 C         1.287292        -0.024881         0.212731
 C         2.141229         1.344959         0.306454
 O         3.509102         0.923617         0.125448
 C         3.328801        -0.513099        -0.023958
 C         2.215701        -1.067161         0.895639
 C         1.914757        -2.143465        -0.144097
 C         2.129451        -0.840221        -0.936840
 O         2.038879        -0.850799        -2.323326
 H        -0.451698         0.149736         1.482608
 H        -0.861379         0.886937        -0.194211
 H        -0.713046        -0.881713         0.042091
 H         1.835612         2.139062        -0.357029
 H         2.113466         1.784794         1.290970
 H         4.278704        -0.971789        -0.082707
 H         2.261968        -1.048532         1.929146
 H         2.694112        -2.897666        -0.438010
 H         0.887099        -2.483070        -0.185429
 H         2.361320         0.076803        -2.637522
