19
Iteration:  3776charge 0 multiplicity 1
 C        -0.158839        -0.332861         0.482633
 C         1.310761        -0.049705         0.269372
 C         1.919512         1.334164         0.438041
 O         3.299554         1.001056         0.184815
 C         3.346687        -0.459575         0.016549
 C         2.283670        -1.113711         0.855348
 C         1.937041        -2.145402        -0.301654
 C         2.204425        -0.758980        -1.039399
 O         2.158097        -0.593712        -2.421378
 H        -0.275006        -0.539552         1.574232
 H        -0.945490         0.409833        -0.021088
 H        -0.405450        -1.407344         0.086934
 H         1.491401         2.075170        -0.249260
 H         1.861876         1.776372         1.506897
 H         4.318427        -0.770526        -0.139274
 H         2.426358        -1.353873         1.962870
 H         2.639523        -2.869901        -0.510172
 H         0.871276        -2.539687        -0.271906
 H         2.630946         0.168056        -2.734205
