19
Iteration:  2185
 C        -0.204804        -0.239556         0.273513
 C         1.372450        -0.127332         0.168060
 C         1.962570         1.269522         0.178581
 O         3.465369         1.033289         0.112514
 C         3.403498        -0.424384         0.065413
 C         2.269552        -1.068901         1.001166
 C         1.977363        -2.236009        -0.018150
 C         2.154329        -0.842264        -0.959718
 O         1.903712        -0.490973        -2.325836
 H        -0.722542         0.460369         0.955596
 H        -0.791938        -0.087146        -0.631280
 H        -0.382084        -1.220100         0.834321
 H         1.501756         1.920994        -0.578176
 H         2.030670         1.555214         1.274022
 H         4.468438        -0.797321         0.064437
 H         2.273077        -1.157458         2.020587
 H         2.726894        -3.012159        -0.117990
 H         1.031282        -2.633652        -0.063749
 H         2.791480        -0.520378        -2.778359
