19
Iteration:  3181charge 0 multiplicity 1
 C        -0.147071        -0.330223         0.188083
 C         1.311908        -0.083166         0.247705
 C         1.991794         1.339124         0.270138
 O         3.321539         0.997549         0.112270
 C         3.372876        -0.423210         0.033796
 C         2.356036        -1.043916         0.962510
 C         2.022292        -2.117748        -0.103862
 C         2.186112        -0.817521        -0.889055
 O         1.924022        -0.649190        -2.263250
 H        -0.684042        -0.096587         1.056957
 H        -0.650250         0.232963        -0.627070
 H        -0.371718        -1.337770         0.056030
 H         1.554633         1.908565        -0.474573
 H         1.834215         2.045714         1.099289
 H         4.378102        -0.801618         0.099856
 H         2.395067        -1.041289         2.136731
 H         2.838877        -2.748944        -0.348613
 H         1.126825        -2.642495        -0.226247
 H         2.571496        -0.222485        -2.787895
