19
Iteration:   320charge 0 multiplicity 1
 C        -0.180465         0.072741         0.405933
 C         1.307344         0.092083         0.173859
 C         2.209113         1.400798         0.069499
 O         3.611966         0.802447         0.035281
 C         3.302545        -0.667254         0.113108
 C         2.099851        -1.100173         0.956236
 C         1.832393        -2.164654        -0.166850
 C         2.093110        -0.872719        -0.856021
 O         2.036668        -0.621179        -2.211619
 H        -0.534014         0.342619         1.395776
 H        -0.633603         0.892434        -0.276539
 H        -0.489526        -0.915218         0.207040
 H         1.884036         1.947897        -0.923822
 H         1.946041         2.192045         0.920802
 H         4.290402        -1.371490         0.309039
 H         2.150886        -1.220876         2.088632
 H         2.633470        -2.819473        -0.307665
 H         0.810390        -2.591549        -0.239830
 H         1.661576        -1.337876        -2.624952
