19
Iteration:  1428
 C        -0.146777        -0.077149         0.119348
 C         1.352541        -0.003974         0.112283
 C         2.097897         1.289393         0.389978
 O         3.443346         0.914537         0.135952
 C         3.426015        -0.475799         0.016130
 C         2.267985        -1.006665         0.913942
 C         1.994558        -2.224471         0.013969
 C         2.120957        -0.884816        -0.962171
 O         1.744333        -0.593706        -2.221174
 H        -0.546709         0.638019         0.777404
 H        -0.339785         0.075365        -0.918436
 H        -0.547186        -1.120184         0.187427
 H         1.937963         2.084692        -0.342200
 H         2.086713         1.558828         1.427219
 H         4.485278        -0.961783         0.139270
 H         2.491667        -0.894461         1.995805
 H         2.851251        -2.849782        -0.031836
 H         1.068943        -2.762241        -0.099389
 H         2.194706        -1.145769        -2.933450
