19
Iteration:   526
 C        -0.041499         0.090016         0.200035
 C         1.416141        -0.012088         0.111753
 C         2.154732         1.293823         0.419917
 O         3.443290         0.938825         0.147619
 C         3.353815        -0.491622        -0.071358
 C         2.328150        -1.034380         0.926628
 C         1.762017        -2.113443        -0.052262
 C         1.991026        -0.886129        -0.930004
 O         1.990674        -0.894035        -2.294075
 H        -0.378178         0.295463         1.211463
 H        -0.470503         1.089299        -0.315484
 H        -0.509172        -0.724810        -0.211803
 H         1.673743         2.119911        -0.049886
 H         1.947815         1.401582         1.446370
 H         4.485070        -0.959620        -0.165784
 H         2.595137        -1.254480         2.015076
 H         2.206750        -3.115936        -0.244335
 H         0.629805        -2.173284         0.214108
 H         1.366063        -0.410360        -2.740569
