19
Iteration:   776charge 0 multiplicity 1
 C        -0.279174         0.010544         0.456928
 C         1.359128         0.010493         0.337400
 C         2.067484         1.271985         0.194182
 O         3.411667         0.874493         0.092787
 C         3.367255        -0.487835        -0.103401
 C         2.304664        -1.084161         0.984615
 C         1.825904        -2.122609        -0.182292
 C         2.146534        -0.817759        -0.949647
 O         2.114196        -0.763252        -2.296577
 H        -0.689876        -0.251542         1.426258
 H        -0.856429         1.051888         0.287236
 H        -0.640902        -0.537858        -0.341775
 H         1.627598         1.762279        -0.678219
 H         2.044767         1.981588         1.072469
 H         4.260775        -1.046910        -0.090019
 H         2.417550        -1.213329         2.003987
 H         2.403425        -3.089477        -0.412749
 H         0.748029        -2.356843        -0.109480
 H         2.829422        -0.306096        -2.674217
