19
Iteration:  1650charge 0 multiplicity 1
 C        -0.160494        -0.079174         0.344405
 C         1.342060        -0.047303         0.215694
 C         1.956190         1.324654         0.276566
 O         3.390288         0.971667         0.200760
 C         3.345145        -0.438647        -0.071423
 C         2.314805        -1.060344         0.894698
 C         1.926992        -2.162444        -0.082209
 C         2.104375        -0.877656        -0.949294
 O         2.151848        -0.718947        -2.345203
 H        -0.414947        -0.319807         1.531794
 H        -0.518426         0.911627         0.056593
 H        -0.461944        -0.994899        -0.227935
 H         1.607036         1.985956        -0.628185
 H         1.810621         1.953768         1.240270
 H         4.345251        -0.834231         0.060666
 H         2.297134        -1.022704         2.022722
 H         2.574509        -3.016644        -0.220121
 H         0.889175        -2.452798        -0.171808
 H         1.313404        -1.013667        -2.819539
