19
Iteration:  2513
 C        -0.193960        -0.254335         0.297714
 C         1.340800        -0.054629         0.185091
 C         1.971030         1.305573         0.177252
 O         3.388141         0.940327         0.106151
 C         3.298048        -0.417570         0.032074
 C         2.336654        -1.028795         1.000176
 C         2.082860        -2.125600        -0.069677
 C         2.091728        -0.828641        -0.820868
 O         1.988668        -0.614191        -2.323466
 H        -0.729553        -0.356964         1.168114
 H        -0.734121         0.554298        -0.265494
 H        -0.325229        -1.183045        -0.319500
 H         1.538007         1.968222        -0.626134
 H         1.782166         1.775993         1.119692
 H         4.292518        -0.928485        -0.347263
 H         2.138311        -1.178778         2.080927
 H         2.984400        -2.751089        -0.114284
 H         1.072730        -2.638930         0.041129
 H         2.878073        -0.478265        -2.801359
