19
Iteration:  2767
 C        -0.238950        -0.324661         0.285190
 C         1.269305        -0.032167         0.134567
 C         1.940323         1.306448         0.276407
 O         3.370072         1.009239         0.129270
 C         3.401286        -0.435162         0.018205
 C         2.355868        -1.030250         0.980981
 C         2.042230        -2.100981        -0.097547
 C         2.207272        -0.800142        -0.907725
 O         2.049333        -0.650007        -2.314152
 H        -0.563976         0.165692         1.275394
 H        -0.685520         0.385952        -0.456486
 H        -0.577808        -1.328797         0.164444
 H         1.736947         2.142986        -0.387172
 H         1.804817         1.656509         1.209441
 H         4.460575        -0.675785        -0.023953
 H         2.270908        -1.331804         2.083851
 H         2.862372        -2.857312        -0.278790
 H         0.936538        -2.527273        -0.094568
 H         1.378418        -1.218620        -2.740308
