19
Iteration:   912charge 0 multiplicity 1
 C        -0.173618        -0.063957         0.131036
 C         1.373739         0.008993         0.153333
 C         2.172271         1.312675         0.330066
 O         3.509126         0.860184         0.115337
 C         3.356134        -0.551837         0.072922
 C         2.176027        -1.050400         0.977086
 C         2.055390        -2.216098        -0.111225
 C         2.080654        -0.842397        -0.895719
 O         1.774085        -0.621410        -2.262337
 H        -0.442456         0.965369         0.140254
 H        -0.407498        -0.499565        -0.885602
 H        -0.654790        -0.646791         1.022877
 H         1.985361         2.060920        -0.439771
 H         1.985791         1.906976         1.287588
 H         4.389274        -1.064221         0.002071
 H         2.288474        -1.327404         2.113543
 H         2.908133        -2.860689        -0.283851
 H         1.100166        -2.742098         0.114745
 H         1.878835         0.365564        -2.533090
