19
Iteration:  2823
 C        -0.243239        -0.102455         0.127086
 C         1.265438        -0.107769         0.231422
 C         1.943279         1.204551         0.270987
 O         3.390410         1.012320         0.188074
 C         3.354502        -0.348657         0.064491
 C         2.418461        -1.060706         0.955116
 C         2.190183        -2.130429        -0.211160
 C         2.134747        -0.801641        -0.873871
 O         1.852150        -0.693581        -2.204386
 H        -0.526712         0.534778         1.042632
 H        -0.488432         0.314397        -0.831294
 H        -0.677633        -1.123407         0.240422
 H         1.630329         1.792976        -0.597626
 H         1.758628         1.679544         1.136597
 H         4.395477        -0.812812        -0.088518
 H         2.621933        -1.229080         2.063028
 H         2.914666        -2.932409        -0.583345
 H         1.224326        -2.781829        -0.083302
 H         2.552591        -1.219723        -2.721016
