19
Iteration:  4272charge 0 multiplicity 1
 C        -0.210257        -0.157171         0.482816
 C         1.283825        -0.090593         0.206830
 C         1.863725         1.247517         0.269366
 O         3.317105         1.012623         0.149890
 C         3.298035        -0.369626        -0.024347
 C         2.302919        -1.105393         0.870349
 C         2.101751        -2.201560        -0.222641
 C         2.202777        -0.773583        -0.936092
 O         2.153614        -0.698550        -2.320038
 H        -0.389984         0.676185         1.041499
 H        -0.751346        -0.274665        -0.466103
 H        -0.509838        -0.934109         1.181284
 H         1.512954         1.865868        -0.528176
 H         1.500193         1.666498         1.182680
 H         4.288506        -0.754734        -0.199903
 H         2.347429        -1.189093         2.015420
 H         2.948604        -2.979962        -0.403598
 H         1.162834        -2.746380        -0.207037
 H         2.302823         0.197879        -2.576223
