19
Iteration:   554
 C        -0.239659         0.173916         0.183847
 C         1.320338         0.031464         0.286823
 C         2.247843         1.355354         0.433870
 O         3.505782         0.894093         0.055401
 C         3.405630        -0.516824        -0.019871
 C         2.170338        -1.075958         0.990433
 C         1.985016        -2.182242        -0.107170
 C         2.132172        -0.879473        -0.903305
 O         1.869556        -0.900798        -2.355496
 H        -0.910494         0.184310         1.092870
 H        -0.461313         1.028585        -0.365821
 H        -0.570643        -0.755904        -0.420145
 H         1.716972         2.063579        -0.246358
 H         2.245805         1.697582         1.535484
 H         4.349239        -0.943254        -0.120828
 H         2.292628        -1.248302         2.053526
 H         2.662051        -3.028086        -0.274603
 H         0.979857        -2.550668        -0.067432
 H         1.490246        -0.078348        -2.685981
