19
Iteration:  1859charge 0 multiplicity 1
 C        -0.127311        -0.155555         0.490470
 C         1.290649        -0.063542         0.081827
 C         1.982860         1.334148         0.313343
 O         3.398336         0.969593         0.113372
 C         3.269129        -0.414351         0.034788
 C         2.130847        -1.016121         0.958622
 C         1.983951        -2.107467        -0.124560
 C         2.123954        -0.861418        -1.007315
 O         2.262960        -0.784307        -2.402501
 H        -0.308383        -0.175737         1.628380
 H        -0.864401         0.518228         0.175157
 H        -0.481841        -1.128835         0.285913
 H         1.741634         2.085501        -0.477030
 H         1.833371         1.711112         1.394886
 H         4.266624        -0.873699         0.023144
 H         1.994116        -0.856123         1.978007
 H         2.844616        -2.711573        -0.468259
 H         1.077730        -2.705574        -0.134235
 H         1.532140        -0.270840        -2.679744
