19
Iteration:   967
 C        -0.118901         0.064115         0.543874
 C         1.354006         0.032583         0.161898
 C         1.979645         1.306928         0.404203
 O         3.391403         0.921942         0.183332
 C         3.319965        -0.509002        -0.073203
 C         2.206576        -1.109655         0.886932
 C         1.790299        -2.122638        -0.216319
 C         2.134594        -0.865932        -1.009599
 O         2.175986        -0.845050        -2.441551
 H        -0.647240         0.558188        -0.252668
 H        -0.574983        -0.922478         0.707667
 H        -0.208224         0.597547         1.571116
 H         1.717220         2.129105        -0.201359
 H         1.875946         1.498982         1.503069
 H         4.394527        -0.760912        -0.041598
 H         2.520233        -1.264399         1.971192
 H         2.355880        -3.024729        -0.387670
 H         0.710946        -2.353698        -0.276082
 H         2.837659        -0.106238        -2.769568
