19
Iteration:  2350
 C        -0.184214        -0.204527         0.250780
 C         1.316352        -0.121523         0.241617
 C         2.023737         1.317995         0.247668
 O         3.333021         0.987778        -0.034423
 C         3.282008        -0.458914         0.029220
 C         2.222057        -1.058008         0.963852
 C         2.140249        -2.261942        -0.070665
 C         2.185868        -0.845087        -0.897030
 O         1.982151        -0.556448        -2.227022
 H        -0.453705         0.718802         0.903104
 H        -0.528887         0.313989        -0.685401
 H        -0.761894        -1.133415         0.556462
 H         1.524307         1.999071        -0.479543
 H         1.743444         1.772560         1.306609
 H         4.352605        -0.985758        -0.025829
 H         2.491977        -1.201910         2.030182
 H         2.951203        -2.958473        -0.107628
 H         1.183103        -2.814986         0.035838
 H         2.671698         0.120271        -2.464681
