19
Iteration:  3197
 C        -0.197400        -0.402675         0.271777
 C         1.321744        -0.043986         0.173520
 C         1.949204         1.329516         0.258497
 O         3.438357         1.048507         0.119493
 C         3.389186        -0.364881         0.063965
 C         2.251494        -1.025732         0.979940
 C         2.006943        -2.095331        -0.188573
 C         2.200297        -0.815920        -0.909454
 O         1.945123        -0.677286        -2.254666
 H        -0.623562         0.082550         1.280682
 H        -0.697563        -0.087246        -0.650259
 H        -0.418183        -1.625158         0.362086
 H         1.770037         2.057325        -0.652516
 H         1.800146         1.749154         1.257804
 H         4.380320        -0.883935        -0.105794
 H         2.354985        -1.301835         1.979025
 H         2.649564        -3.044831        -0.262777
 H         0.888743        -2.439402        -0.126941
 H         2.754740        -0.260439        -2.637043
