19
Iteration:  3579charge 0 multiplicity 1
 C        -0.284992        -0.127804         0.481195
 C         1.298972        -0.166965         0.201332
 C         1.901143         1.204994         0.249758
 O         3.279354         0.980088         0.082720
 C         3.320274        -0.397740         0.010395
 C         2.411411        -1.107912         0.903422
 C         2.080198        -2.178745        -0.190393
 C         2.127652        -0.840250        -0.935054
 O         2.157167        -0.545701        -2.306516
 H        -0.701634         0.912384         0.402647
 H        -0.785486        -0.728793        -0.240987
 H        -0.477869        -0.656588         1.472403
 H         1.525529         1.865702        -0.638131
 H         1.585865         1.764446         1.139489
 H         4.373689        -0.733863        -0.118664
 H         2.507424        -1.273965         1.976296
 H         2.836669        -2.911993        -0.440191
 H         0.991661        -2.588011        -0.102631
 H         2.957554        -0.077231        -2.445044
