19
Iteration:  1667charge 0 multiplicity 1
 C        -0.301433        -0.052776         0.464169
 C         1.272651        -0.047981         0.096049
 C         2.018664         1.272373         0.331894
 O         3.405885         0.980411         0.116035
 C         3.310706        -0.447326        -0.029114
 C         2.247046        -1.013131         0.944812
 C         2.000633        -2.151339        -0.138524
 C         2.164153        -0.829703        -0.972810
 O         2.236048        -0.792674        -2.328270
 H        -0.450736         0.043598         1.417031
 H        -0.796653         0.855065         0.070212
 H        -0.956667        -0.822476         0.051363
 H         1.771903         2.105432        -0.249870
 H         1.791729         1.626993         1.302652
 H         4.270890        -0.863850        -0.390042
 H         2.375576        -1.277509         1.959626
 H         2.834159        -2.883757        -0.373601
 H         1.057085        -2.729238         0.058849
 H         1.350483        -0.672555        -2.736438
