19
Iteration:  1894charge 0 multiplicity 1
 C        -0.298211        -0.142942         0.376120
 C         1.311130        -0.088420         0.224856
 C         1.968675         1.320851         0.130400
 O         3.379210         1.020279         0.196351
 C         3.382631        -0.405469         0.000605
 C         2.355513        -1.152312         0.975690
 C         1.960280        -2.173682        -0.128505
 C         2.179498        -0.907951        -0.891924
 O         2.095604        -0.689507        -2.333929
 H        -0.435620         0.169063         1.493307
 H        -0.733993         0.460358        -0.385106
 H        -0.635784        -1.079443         0.175418
 H         1.695332         1.837070        -0.849137
 H         1.778714         2.164656         0.876454
 H         4.406208        -0.725549        -0.106523
 H         2.471271        -1.249647         2.008594
 H         2.505323        -3.005336        -0.534395
 H         0.920820        -2.360719        -0.090824
 H         2.175391         0.237823        -2.553030
