19
Iteration:  3949charge 0 multiplicity 1
 C        -0.250780        -0.138036         0.586522
 C         1.243108        -0.208864         0.261292
 C         1.871135         1.269693         0.484300
 O         3.255436         1.009481         0.201259
 C         3.314697        -0.379269        -0.126743
 C         2.276585        -1.221692         0.786160
 C         2.156578        -2.195961        -0.347243
 C         2.211394        -0.823085        -1.044688
 O         2.189190        -0.544432        -2.353199
 H        -0.295825         0.522011         1.401026
 H        -0.717313         0.531642        -0.129807
 H        -0.753141        -1.109547         0.643845
 H         1.397172         2.068839        -0.271183
 H         1.752034         1.653370         1.473587
 H         4.316766        -0.639277        -0.122612
 H         2.411213        -1.450152         1.915598
 H         2.978823        -2.884666        -0.598924
 H         1.202629        -2.887729        -0.519495
 H         2.773007         0.267461        -2.484953
