19
Iteration:  2352
 C        -0.183728        -0.195310         0.255374
 C         1.302081        -0.122959         0.244328
 C         2.032011         1.308805         0.252523
 O         3.328636         0.966637        -0.034678
 C         3.284178        -0.454302         0.018865
 C         2.229815        -1.066221         0.968526
 C         2.142461        -2.238049        -0.071399
 C         2.174763        -0.843679        -0.902446
 O         1.992056        -0.556162        -2.223153
 H        -0.467043         0.764561         0.895586
 H        -0.568806         0.228162        -0.658422
 H        -0.705821        -1.084667         0.528049
 H         1.509180         1.942909        -0.462413
 H         1.702854         1.781219         1.244196
 H         4.305266        -0.939948        -0.058326
 H         2.480335        -1.174944         2.079797
 H         2.997764        -2.893033        -0.047330
 H         1.191987        -2.857326        -0.019770
 H         2.693872         0.152460        -2.493531
