19
Iteration:  4389
 C        -0.245288        -0.172315         0.090780
 C         1.366737        -0.078456         0.218970
 C         1.983858         1.294094         0.362158
 O         3.329265         1.083469         0.167774
 C         3.390155        -0.359643        -0.018078
 C         2.385925        -1.075610         0.977961
 C         2.168483        -2.128124        -0.101338
 C         2.206551        -0.918714        -0.939180
 O         1.816164        -0.805618        -2.243722
 H        -0.607962        -1.164317         0.595473
 H        -0.663330         0.745990         0.494603
 H        -0.808360        -0.089690        -0.821392
 H         1.653583         2.008912        -0.427529
 H         1.664039         1.765631         1.288667
 H         4.462489        -0.689239         0.049133
 H         2.568420        -1.209043         1.976821
 H         3.030680        -2.725660        -0.198198
 H         1.345244        -2.763628        -0.109757
 H         2.001800         0.084790        -2.647757
