19
Iteration:  2288charge 0 multiplicity 1
 C        -0.236171        -0.154716         0.309774
 C         1.306130         0.031713         0.224787
 C         2.042255         1.317886         0.335803
 O         3.396076         1.068660         0.259336
 C         3.365103        -0.346805         0.020390
 C         2.258337        -1.040055         0.882183
 C         2.075767        -2.183173        -0.159110
 C         2.129534        -0.848158        -0.934210
 O         1.972694        -0.945337        -2.423339
 H        -0.514137        -0.159887         1.438326
 H        -0.907705         0.557279        -0.112475
 H        -0.495170        -0.994695        -0.243624
 H         1.908614         2.130023        -0.424174
 H         1.801799         1.896899         1.215130
 H         4.373641        -0.635552        -0.234043
 H         2.491396        -1.333579         1.976236
 H         2.985509        -2.817215        -0.170345
 H         1.087604        -2.765830        -0.086473
 H         2.128977        -0.028268        -2.813479
