19
Iteration:  4120
 C        -0.177073        -0.364618         0.525104
 C         1.251954        -0.058286         0.175493
 C         1.899043         1.332640         0.390898
 O         3.309178         1.002627         0.118899
 C         3.359046        -0.427140         0.006518
 C         2.251218        -1.021765         0.891337
 C         1.913352        -2.081812        -0.274581
 C         2.215799        -0.798264        -1.016385
 O         2.223030        -0.681156        -2.379418
 H        -0.716352        -1.057832        -0.151213
 H        -0.162832        -0.954619         1.408122
 H        -0.635223         0.464232         0.982599
 H         1.623443         2.137857        -0.428445
 H         1.704047         1.782174         1.398533
 H         4.373505        -0.889957        -0.079711
 H         2.410736        -1.254400         1.977905
 H         2.736400        -2.765183        -0.353538
 H         1.016199        -2.571984        -0.356846
 H         2.628569         0.148408        -2.543904
