19
Iteration:  2379
 C        -0.269706        -0.153605         0.357975
 C         1.260397        -0.091407         0.245624
 C         1.941877         1.330900         0.222802
 O         3.409427         1.007297         0.098442
 C         3.338018        -0.439508        -0.028602
 C         2.351402        -1.057268         0.950761
 C         2.068251        -2.225626        -0.153339
 C         2.096340        -0.854313        -0.886478
 O         2.095507        -0.662142        -2.275928
 H        -0.568392         0.735048         0.766802
 H        -0.752066        -0.180917        -0.671350
 H        -0.752094        -1.030585         0.866966
 H         1.484704         1.981648        -0.547801
 H         1.626642         1.746109         1.135305
 H         4.285833        -0.922212        -0.235584
 H         2.520717        -1.252793         1.984705
 H         2.815209        -3.019786        -0.532428
 H         1.123305        -2.653404         0.115711
 H         2.754830         0.112632        -2.470311
