19
Iteration:  1809
 C        -0.065760        -0.044427         0.187981
 C         1.347977        -0.135814         0.287512
 C         1.944093         1.278914         0.344476
 O         3.318357         1.021871         0.141448
 C         3.352883        -0.454637        -0.028452
 C         2.352462        -1.100835         0.939401
 C         2.011600        -2.140028        -0.065099
 C         2.024549        -0.838615        -0.903279
 O         2.085281        -0.663658        -2.342046
 H        -0.545900         0.439537         1.031705
 H        -0.419802         0.634154        -0.691115
 H        -0.685788        -1.005379         0.045078
 H         1.525546         2.008375        -0.378226
 H         1.753986         1.717753         1.328437
 H         4.316758        -0.813646        -0.321523
 H         2.657776        -1.317279         1.993077
 H         2.748803        -2.971888        -0.167872
 H         0.975682        -2.554799        -0.012911
 H         1.660062        -1.488330        -2.688825
