19
Iteration:  3198charge 0 multiplicity 1
 C        -0.193127        -0.401181         0.281477
 C         1.311923        -0.042396         0.164495
 C         1.947011         1.325775         0.257285
 O         3.443390         1.056819         0.122070
 C         3.394419        -0.366073         0.059983
 C         2.246900        -1.037148         0.973974
 C         2.012438        -2.101535        -0.179328
 C         2.195152        -0.815025        -0.906419
 O         1.952580        -0.675506        -2.260008
 H        -0.625520         0.082285         1.267087
 H        -0.701321        -0.094355        -0.656785
 H        -0.419137        -1.587219         0.386287
 H         1.758371         2.067968        -0.643686
 H         1.772167         1.794060         1.301187
 H         4.387765        -0.924050        -0.133242
 H         2.340340        -1.263613         2.005463
 H         2.647407        -3.039616        -0.274580
 H         0.854263        -2.458613        -0.143706
 H         2.727097        -0.269517        -2.641256
