19
Iteration:   573
 C        -0.186046         0.103295         0.205319
 C         1.308901         0.004971         0.141372
 C         2.174505         1.322759         0.302091
 O         3.583512         0.833374         0.097028
 C         3.285131        -0.529088         0.023676
 C         2.236754        -1.050994         0.968016
 C         1.994859        -2.168313        -0.071556
 C         2.015257        -0.855437        -0.905861
 O         1.864360        -0.794030        -2.258073
 H        -0.539725         0.338978         1.223755
 H        -0.558496         1.021926        -0.272970
 H        -0.745208        -0.825057        -0.199162
 H         1.970581         2.113918        -0.475556
 H         2.031549         1.658803         1.278911
 H         4.097276        -1.193035        -0.126326
 H         2.328650        -1.117032         2.016033
 H         2.934026        -2.698954        -0.287841
 H         1.226729        -2.880673        -0.032829
 H         2.189290         0.161552        -2.428573
