19
Iteration:   386charge 0 multiplicity 1
 C        -0.156428         0.126567         0.175121
 C         1.396923         0.004794         0.184469
 C         2.184416         1.275020         0.427369
 O         3.581755         0.876065         0.105277
 C         3.307579        -0.536065        -0.022634
 C         2.200534        -1.064099         1.006528
 C         1.838785        -2.040225        -0.068053
 C         2.127566        -0.818123        -0.971795
 O         1.907951        -0.922919        -2.319963
 H        -0.665678         0.476415         1.061975
 H        -0.423062         0.966532        -0.572822
 H        -0.583428        -0.803510        -0.117824
 H         1.869561         2.198196        -0.233620
 H         2.154716         1.626176         1.536979
 H         4.311175        -1.184156        -0.120643
 H         2.323149        -1.240183         2.131451
 H         2.494947        -2.854419        -0.243934
 H         0.790120        -2.380209        -0.068554
 H         1.164846        -0.294146        -2.635784
