19
Iteration:   474charge 0 multiplicity 1
 C        -0.134212         0.096932         0.425679
 C         1.362872         0.002059         0.148995
 C         2.115366         1.360734         0.048877
 O         3.537049         0.786075         0.065878
 C         3.315804        -0.563242         0.122711
 C         2.188146        -1.141301         0.979315
 C         1.840761        -2.192759        -0.173131
 C         2.007752        -0.831170        -0.840783
 O         2.107365        -0.573512        -2.228374
 H        -0.340681         0.756624         1.266350
 H        -0.802936         0.366750        -0.450422
 H        -0.509344        -0.936395         0.582811
 H         1.842030         1.766800        -0.984154
 H         1.874159         2.165999         0.813510
 H         4.289066        -1.150213        -0.001800
 H         2.074401        -1.324041         2.084002
 H         2.685020        -2.836363        -0.337580
 H         0.907326        -2.742827        -0.225300
 H         1.379192        -1.092245        -2.608137
