19
Iteration:   113charge 0 multiplicity 1
 C        -0.141356         0.132769         0.425317
 C         1.349920        -0.025570         0.274555
 C         2.145410         1.330071         0.289469
 O         3.490964         0.898999         0.134073
 C         3.285797        -0.497272        -0.065550
 C         2.199316        -1.091226         0.956926
 C         1.734241        -2.142513        -0.165789
 C         2.102206        -0.916873        -0.950279
 O         2.067559        -0.823316        -2.369325
 H        -0.236762         0.477355         1.468650
 H        -0.472070         1.056853        -0.200929
 H        -0.779692        -0.667334         0.365746
 H         1.946783         1.996365        -0.480948
 H         2.047002         1.944899         1.154528
 H         4.309648        -0.874229        -0.524853
 H         2.178681        -1.215552         2.066471
 H         2.317512        -3.050737        -0.227400
 H         0.653588        -2.222093        -0.243558
 H         3.046585        -0.991408        -2.714921
