19
Iteration:  3034charge 0 multiplicity 1
 C        -0.249283        -0.088826         0.245127
 C         1.266260        -0.158583         0.269998
 C         1.896894         1.256727         0.216581
 O         3.301392         0.985277         0.057664
 C         3.336216        -0.432369         0.059767
 C         2.396535        -1.094737         1.006439
 C         2.181265        -2.213702        -0.160764
 C         2.187991        -0.804868        -0.875556
 O         2.002582        -0.634692        -2.266756
 H        -0.506637         0.593746         1.060439
 H        -0.641309         0.255144        -0.643367
 H        -0.927403        -0.920997         0.465811
 H         1.512591         1.706507        -0.725382
 H         1.825189         1.807655         1.279300
 H         4.304618        -0.829808        -0.160643
 H         2.362610        -1.189808         2.029866
 H         3.145391        -2.785634        -0.361491
 H         1.249469        -2.763398        -0.125890
 H         2.671754         0.098701        -2.534681
