19
Iteration:  1300
 C        -0.153691        -0.043627         0.322923
 C         1.380774         0.053804         0.299872
 C         2.075786         1.322035         0.253326
 O         3.452191         0.906454         0.083156
 C         3.307482        -0.482092        -0.049882
 C         2.271841        -1.116774         0.953835
 C         1.807353        -2.141763        -0.110381
 C         2.077330        -0.850107        -0.867672
 O         2.119268        -0.662478        -2.305728
 H        -0.689356         0.019481         1.350746
 H        -0.538909         0.737066        -0.318662
 H        -0.428766        -1.062224         0.041525
 H         1.763678         1.822372        -0.669625
 H         1.942629         2.138984         0.991255
 H         4.204013        -1.027947        -0.306037
 H         2.498440        -1.411888         1.990597
 H         2.603304        -2.948548        -0.217201
 H         0.807051        -2.613775        -0.194940
 H         1.555437        -1.299860        -2.651475
