19
Iteration:  2269charge 0 multiplicity 1
 C        -0.197144        -0.114685         0.392835
 C         1.361942        -0.083512         0.069291
 C         1.882911         1.315576         0.359153
 O         3.419337         0.993626         0.195099
 C         3.328588        -0.391699         0.029892
 C         2.263553        -1.010586         0.922660
 C         2.109350        -2.083827        -0.200315
 C         2.190746        -0.813399        -0.998255
 O         2.010471        -0.938977        -2.320614
 H        -0.281213        -0.063730         1.455792
 H        -0.585531         0.867439        -0.064691
 H        -0.929050        -0.929641         0.014325
 H         1.635460         2.146007        -0.383506
 H         1.652902         1.625492         1.382485
 H         4.261361        -0.800754         0.044403
 H         2.127335        -0.984865         2.020177
 H         2.977479        -2.797185        -0.352097
 H         1.129489        -2.574735        -0.305783
 H         1.915435        -0.039412        -2.633465
