19
Iteration:  3781charge 0 multiplicity 1
 C        -0.175905        -0.327953         0.454882
 C         1.276599        -0.056610         0.270151
 C         1.919571         1.260140         0.453779
 O         3.323263         1.001498         0.194838
 C         3.325105        -0.434132        -0.022331
 C         2.269456        -1.079085         0.893867
 C         1.955555        -2.147399        -0.331893
 C         2.193550        -0.775614        -1.023052
 O         2.150775        -0.603124        -2.411844
 H        -0.333484        -0.271177         1.556022
 H        -0.780297         0.404686         0.076795
 H        -0.291639        -1.331094         0.207219
 H         1.576486         2.164240        -0.209350
 H         1.830289         1.728831         1.425917
 H         4.439253        -0.762432        -0.127118
 H         2.472058        -1.221139         1.935431
 H         2.786413        -2.890024        -0.675278
 H         0.964977        -2.519875        -0.269421
 H         2.634960         0.201016        -2.721899
