19
Iteration:  4634
 C        -0.195096        -0.054754         0.462444
 C         1.289650        -0.095487         0.129646
 C         1.886335         1.288520         0.095120
 O         3.247536         1.052407        -0.030874
 C         3.276082        -0.427623         0.010589
 C         2.301525        -1.018870         0.961377
 C         2.174397        -2.176638        -0.008900
 C         2.166211        -0.922117        -0.854316
 O         2.129657        -0.740184        -2.244128
 H        -0.520259         0.193368         1.585972
 H        -0.634405         0.625699        -0.339685
 H        -0.654040        -1.103526         0.412233
 H         1.593287         1.897736        -0.779177
 H         1.566086         1.807901         1.012069
 H         4.259478        -0.618113        -0.232108
 H         2.340340        -1.213212         2.082581
 H         3.056374        -2.793498        -0.145364
 H         1.254846        -2.753380        -0.115216
 H         2.963815        -1.003754        -2.560668
