19
Iteration:  1147
 C        -0.162643         0.027824         0.582954
 C         1.298146         0.038799         0.275267
 C         2.065096         1.345428         0.227281
 O         3.456759         0.875253         0.125568
 C         3.266209        -0.590168        -0.069895
 C         2.181318        -1.078818         0.908671
 C         1.846351        -2.137320        -0.180305
 C         2.059947        -0.869584        -0.955695
 O         2.283770        -0.650948        -2.351108
 H        -0.749380         0.847760         0.061379
 H        -0.628242        -0.886184         0.009931
 H        -0.554260        -0.247902         1.552482
 H         1.946201         1.905547        -0.735088
 H         2.022894         2.018876         1.124623
 H         4.286621        -1.068600        -0.284877
 H         2.292179        -1.316197         1.988890
 H         2.579540        -3.009424        -0.271243
 H         0.801214        -2.520248        -0.301241
 H         1.568620        -0.994406        -2.917808
