19
Iteration:  1712
 C        -0.188312        -0.022282         0.361315
 C         1.318798        -0.087440         0.220396
 C         1.957456         1.304519         0.325752
 O         3.327202         1.004915         0.071170
 C         3.367041        -0.475611        -0.039523
 C         2.315671        -1.133865         0.952470
 C         1.947194        -2.136800        -0.120946
 C         2.135143        -0.863056        -0.910862
 O         2.201940        -0.768284        -2.350734
 H        -0.472693         0.591044         1.081391
 H        -0.803648         0.293521        -0.478635
 H        -0.671894        -0.991386         0.581498
 H         1.573379         2.080196        -0.279077
 H         1.825543         1.750185         1.325914
 H         4.359149        -0.866571        -0.067355
 H         2.378388        -1.117934         2.047371
 H         2.596052        -3.030892        -0.321972
 H         0.879650        -2.458804        -0.229963
 H         1.699142         0.079923        -2.578439
