19
Iteration:  4617charge 0 multiplicity 1
 C        -0.236095        -0.179798         0.384862
 C         1.281254        -0.114257         0.203199
 C         1.872164         1.343923         0.165804
 O         3.351040         1.055780        -0.026491
 C         3.364705        -0.323961         0.029965
 C         2.277814        -0.989573         1.016658
 C         2.096337        -2.189541        -0.037855
 C         2.186106        -0.906601        -0.914048
 O         2.082688        -0.749167        -2.306054
 H        -0.383103         0.554401         1.079638
 H        -0.893955         0.226597        -0.347703
 H        -0.585115        -1.125863         0.733444
 H         1.473619         1.955689        -0.678662
 H         1.793613         1.948664         1.098732
 H         4.435816        -0.859679         0.105694
 H         2.393151        -0.959468         2.049389
 H         2.838602        -3.047664        -0.132405
 H         1.201331        -2.893318         0.081199
 H         2.731224        -1.233060        -2.782357
