19
Iteration:  3347
 C        -0.151129        -0.122022         0.203643
 C         1.338094        -0.173571         0.226171
 C         1.886095         1.269783         0.217212
 O         3.349985         1.069186         0.138764
 C         3.392669        -0.381089         0.069795
 C         2.322412        -1.101844         1.012184
 C         2.137223        -2.210497        -0.158286
 C         2.224450        -0.809381        -0.901846
 O         1.851186        -0.687999        -2.270070
 H        -0.582943        -0.410455         1.164174
 H        -0.562936         0.849293         0.189629
 H        -0.629240        -0.747285        -0.612089
 H         1.528993         1.803481        -0.628487
 H         1.551848         1.839149         1.176146
 H         4.411352        -0.749397        -0.151504
 H         2.401599        -1.325636         2.085263
 H         3.072175        -2.866501        -0.173236
 H         1.239153        -2.723811        -0.101621
 H         2.602111        -0.274681        -2.794185
