19
Iteration:  3562charge 0 multiplicity 1
 C        -0.183971        -0.276570         0.429443
 C         1.294197        -0.106445         0.244685
 C         1.898440         1.349591         0.297667
 O         3.376622         1.086342         0.083165
 C         3.343222        -0.409247        -0.076051
 C         2.196276        -1.105074         0.939381
 C         2.020666        -2.220744        -0.183063
 C         2.218650        -0.872293        -0.935911
 O         2.088693        -0.581634        -2.301185
 H        -0.436061         0.751153         0.654752
 H        -0.751792        -0.678249        -0.516714
 H        -0.401708        -0.943901         1.226624
 H         1.471719         1.914036        -0.485704
 H         1.865548         1.711398         1.354431
 H         4.327994        -0.795880        -0.203487
 H         2.290053        -1.228089         2.049735
 H         2.799688        -3.003286        -0.268768
 H         1.110753        -2.772491        -0.251169
 H         2.880667        -0.184720        -2.592551
