19
Iteration:  4827
 C        -0.201365        -0.294578         0.425978
 C         1.299693        -0.016121         0.152232
 C         1.895513         1.353083         0.085689
 O         3.354676         1.034210        -0.096965
 C         3.365067        -0.382009         0.037328
 C         2.241936        -0.844119         0.970001
 C         1.964905        -2.076539         0.087312
 C         2.185942        -0.952720        -0.889713
 O         2.175647        -0.881466        -2.270796
 H        -0.567807        -1.191938         0.004891
 H        -0.287562        -0.548323         1.497030
 H        -0.889953         0.551262         0.268097
 H         1.545992         1.792743        -0.775637
 H         1.730044         1.986708         0.952626
 H         4.398142        -0.629725        -0.103012
 H         2.213781        -0.882205         2.136188
 H         2.607143        -3.076010         0.038105
 H         0.945879        -2.467739         0.095827
 H         2.855753        -0.275432        -2.589356
