19
Iteration:  3068charge 0 multiplicity 1
 C        -0.170584        -0.283965         0.407504
 C         1.322102        -0.096499         0.183739
 C         1.921176         1.319957         0.264145
 O         3.347246         1.050683         0.171850
 C         3.329841        -0.413020         0.011047
 C         2.256786        -0.973863         0.946507
 C         1.980949        -2.191954        -0.121493
 C         2.174788        -0.819598        -0.979503
 O         2.137307        -0.739227        -2.383949
 H        -0.424742         0.361454         1.230701
 H        -0.756514         0.006681        -0.434947
 H        -0.332355        -1.279337         0.702173
 H         1.637398         2.013384        -0.514005
 H         1.773088         2.042473         1.146073
 H         4.355239        -0.824952        -0.148353
 H         2.194953        -1.059480         2.007363
 H         2.703976        -2.986563        -0.166599
 H         0.959806        -2.688833        -0.112619
 H         2.412002         0.085876        -2.786477
