19
Iteration:  1451
 C        -0.208812        -0.063409         0.157169
 C         1.309783        -0.062691         0.218370
 C         2.023786         1.288031         0.250770
 O         3.511622         0.947061         0.075246
 C         3.340585        -0.457720        -0.012384
 C         2.313242        -1.179661         1.064967
 C         1.999551        -2.157923        -0.105038
 C         2.129628        -0.817574        -0.862849
 O         1.915824        -0.555763        -2.197519
 H        -0.508737         0.903835         0.559076
 H        -0.442534        -0.203341        -0.841009
 H        -0.728580        -0.940111         0.609201
 H         1.819773         1.861058        -0.664716
 H         2.081879         1.783900         1.181792
 H         4.308334        -0.946216        -0.272853
 H         2.281385        -1.417688         2.131402
 H         2.660179        -2.877428        -0.494727
 H         0.989229        -2.502019        -0.040134
 H         1.863733        -1.353920        -2.659376
