19
Iteration:  4406
 C        -0.174850        -0.111224         0.232776
 C         1.351362        -0.139983         0.193244
 C         1.850618         1.293575         0.297036
 O         3.336464         1.031791         0.135216
 C         3.362438        -0.335530         0.019977
 C         2.346920        -1.046178         0.934470
 C         2.209772        -2.184312        -0.112259
 C         2.189831        -0.841853        -0.869211
 O         1.920623        -0.824369        -2.306340
 H        -0.660325        -1.060718         0.294917
 H        -0.626118         0.603922         0.999599
 H        -0.435929         0.361637        -0.782235
 H         1.546764         2.008296        -0.491555
 H         1.760722         1.750429         1.350601
 H         4.374077        -0.752705        -0.153692
 H         2.417659        -1.104134         2.121733
 H         3.025467        -3.002030        -0.265058
 H         1.161412        -2.706303        -0.086167
 H         1.744326         0.110263        -2.525668
