19
Iteration:  3256charge 0 multiplicity 1
 C        -0.263819        -0.066281         0.397539
 C         1.259152        -0.161970         0.254578
 C         1.935916         1.231247         0.320924
 O         3.276037         1.103000         0.074617
 C         3.380125        -0.283027        -0.038688
 C         2.264452        -1.178331         0.921423
 C         2.125208        -2.211298        -0.251939
 C         2.165141        -0.889037        -0.909691
 O         2.165973        -0.755879        -2.278589
 H        -0.377559         0.717214         1.094542
 H        -0.899483         0.383557        -0.453737
 H        -0.749488        -0.846407         0.784006
 H         1.499748         1.911637        -0.440882
 H         1.792046         1.800250         1.356247
 H         4.388620        -0.672545        -0.251667
 H         2.435982        -1.485473         2.035384
 H         2.962746        -2.885882        -0.366882
 H         1.107373        -2.785056        -0.098326
 H         2.429064         0.155995        -2.652299
