19
Iteration:  2283
 C        -0.215437        -0.126643         0.338232
 C         1.251028        -0.033440         0.157209
 C         2.056338         1.308365         0.325209
 O         3.388713         1.068233         0.252508
 C         3.374248        -0.350944         0.031561
 C         2.244846        -1.056887         0.897091
 C         2.096644        -2.141050        -0.145102
 C         2.149539        -0.815149        -0.940945
 O         1.979642        -0.945685        -2.404617
 H        -0.408647        -0.108745         1.391459
 H        -0.935844         0.691129         0.006382
 H        -0.544080        -1.089031        -0.228935
 H         1.765289         2.118162        -0.357128
 H         1.842600         1.848745         1.323532
 H         4.436392        -0.771563        -0.164237
 H         2.364595        -1.324842         1.903546
 H         2.953068        -2.800956        -0.267885
 H         1.188205        -2.666222        -0.104990
 H         2.011882        -0.125275        -2.950521
