19
Iteration:  2854
 C        -0.127402        -0.337868         0.242702
 C         1.308925         0.013006         0.198354
 C         1.954757         1.363586         0.386171
 O         3.357309         0.972974         0.125966
 C         3.385495        -0.372814        -0.016127
 C         2.276569        -0.991991         0.903839
 C         1.974253        -2.262003        -0.020914
 C         2.225485        -0.847266        -1.021331
 O         1.965648        -0.648362        -2.337620
 H        -0.466474         0.240648         1.123048
 H        -0.732584         0.075318        -0.544660
 H        -0.389859        -1.305163         0.440717
 H         1.573780         2.073873        -0.359972
 H         1.897672         1.882108         1.462331
 H         4.382294        -0.841798        -0.234692
 H         2.202453        -1.000366         2.086968
 H         2.784731        -2.959029        -0.076822
 H         0.898260        -2.606891         0.241368
 H         2.756732        -0.377950        -2.754330
