19
Iteration:  1047
 C        -0.100841        -0.082189         0.082329
 C         1.437068        -0.066098         0.231754
 C         2.108887         1.274851         0.321052
 O         3.521053         0.941082         0.159424
 C         3.330917        -0.606572         0.007288
 C         2.364210        -1.181303         0.976320
 C         1.771841        -2.146419        -0.097722
 C         2.149360        -0.871619        -0.910069
 O         1.796470        -0.498210        -2.217873
 H        -0.481190        -0.287065        -1.001969
 H        -0.669083        -0.688435         0.735508
 H        -0.548146         0.930221         0.201567
 H         1.619692         1.908947        -0.446240
 H         1.932442         1.871896         1.256850
 H         4.379565        -0.787467        -0.294096
 H         2.461068        -1.264105         2.032809
 H         2.239825        -3.156894        -0.152891
 H         0.687421        -2.301905         0.013947
 H         2.616673        -0.014102        -2.657689
