19
Iteration:   585
 C        -0.132093         0.104640         0.278691
 C         1.362400         0.013361         0.107035
 C         2.115192         1.284255         0.215842
 O         3.487134         0.824089         0.150281
 C         3.356154        -0.598124        -0.053510
 C         2.206403        -1.015477         0.971176
 C         1.943754        -2.192502        -0.065305
 C         2.079611        -0.885943        -0.860767
 O         1.881172        -0.694101        -2.231457
 H        -0.360077         0.279965         1.359137
 H        -0.524987         0.791739        -0.436194
 H        -0.649269        -0.915700        -0.025132
 H         1.841172         2.030005        -0.602554
 H         1.974465         1.834589         1.129565
 H         4.268106        -0.994652        -0.305045
 H         2.243719        -0.980605         2.032441
 H         2.694669        -2.948830        -0.292351
 H         0.958419        -2.536146         0.031556
 H         2.535291        -0.024770        -2.630879
