19
Iteration:  2945charge 0 multiplicity 1
 C        -0.210761        -0.143190         0.367914
 C         1.312895        -0.024712         0.124028
 C         1.930620         1.332518         0.271549
 O         3.332363         1.033193         0.263484
 C         3.299596        -0.404684        -0.047688
 C         2.345551        -1.021281         0.893011
 C         2.071583        -2.179454        -0.194237
 C         2.133743        -0.893443        -0.926262
 O         2.088846        -0.825158        -2.309348
 H        -0.297291        -0.011421         1.465591
 H        -0.710385         0.568037        -0.187405
 H        -0.579247        -1.187090         0.084091
 H         1.663451         2.164646        -0.449667
 H         1.600407         1.634781         1.387887
 H         4.275202        -0.801053        -0.279512
 H         2.444818        -1.250085         1.901074
 H         3.063469        -2.747523        -0.328855
 H         1.139485        -2.682363        -0.066565
 H         2.116132         0.138527        -2.577247
