19
Iteration:    74charge 0 multiplicity 1
 C        -0.163679         0.030739         0.289448
 C         1.360872        -0.005057         0.145788
 C         2.250158         1.357099         0.298444
 O         3.577745         0.803070         0.171692
 C         3.378196        -0.515188        -0.032193
 C         2.156262        -1.007226         1.013317
 C         1.812588        -2.155548        -0.087062
 C         2.058074        -0.865540        -0.943025
 O         1.908250        -0.792959        -2.362404
 H        -0.459159         0.815234         1.022192
 H        -0.504296         0.456377        -0.634483
 H        -0.728653        -0.985932         0.487920
 H         2.054292         2.332618        -0.350912
 H         2.033544         1.761134         1.350897
 H         4.233816        -1.072756        -0.308491
 H         2.131041        -1.108977         2.167405
 H         2.669430        -2.884798        -0.103251
 H         0.763609        -2.585968        -0.167404
 H         1.860515         0.173484        -2.555591
