19
Iteration:  2366
 C        -0.247489        -0.085891         0.286085
 C         1.313245        -0.099361         0.219752
 C         1.886963         1.224662         0.255955
 O         3.366881         0.932309         0.022663
 C         3.336432        -0.454055        -0.056905
 C         2.303026        -1.072626         1.022384
 C         2.129931        -2.144593        -0.077988
 C         2.091730        -0.870381        -0.864769
 O         2.057902        -0.579129        -2.262951
 H        -0.764591         0.573354         0.952176
 H        -0.622955        -0.119958        -0.723598
 H        -0.407294        -1.011528         0.785579
 H         1.669685         1.838084        -0.604435
 H         2.022958         1.769592         1.112958
 H         4.234521        -0.855661        -0.266641
 H         2.268311        -1.218896         2.107605
 H         3.099794        -2.709664        -0.347183
 H         1.284296        -2.838959        -0.170655
 H         2.701404         0.098040        -2.339793
