19
Iteration:   979
 C        -0.128021         0.050196         0.597052
 C         1.278056        -0.032008         0.177489
 C         2.070421         1.301383         0.402767
 O         3.397992         0.899983         0.141259
 C         3.263570        -0.536505        -0.028826
 C         2.140892        -1.035967         0.843656
 C         1.863186        -2.125950        -0.233538
 C         2.178325        -0.836340        -1.046152
 O         2.198481        -0.801487        -2.418108
 H        -0.886900         0.335080        -0.157243
 H        -0.424263        -0.888749         0.968113
 H        -0.252541         0.874383         1.428591
 H         1.765130         2.079392        -0.266416
 H         1.881600         1.753726         1.429330
 H         4.103285        -1.195526        -0.212344
 H         2.059535        -1.247995         1.938345
 H         2.648415        -2.856467        -0.275268
 H         0.873180        -2.612513        -0.241768
 H         2.749945        -0.094781        -2.666245
