19
Iteration:  3200
 C        -0.185839        -0.398263         0.303513
 C         1.292181        -0.043722         0.147299
 C         1.943584         1.323750         0.255445
 O         3.451082         1.071981         0.128434
 C         3.405001        -0.372324         0.048996
 C         2.240666        -1.059946         0.957375
 C         2.017811        -2.118573        -0.156996
 C         2.184076        -0.812677        -0.899734
 O         1.966720        -0.672496        -2.270967
 H        -0.618168         0.067198         1.189476
 H        -0.714295        -0.104407        -0.650255
 H        -0.401666        -1.442217         0.432055
 H         1.728839         2.055415        -0.577383
 H         1.722586         1.873502         1.338271
 H         4.369932        -0.969867        -0.172190
 H         2.306114        -1.183728         2.084688
 H         2.640757        -2.997192        -0.299351
 H         0.863062        -2.485658        -0.185490
 H         2.703129        -0.267826        -2.672931
