19
Iteration:  1838
 C        -0.296757        -0.088804         0.396236
 C         1.240456        -0.014412         0.195875
 C         2.002462         1.381539         0.378297
 O         3.368767         1.025499         0.082957
 C         3.374203        -0.462077        -0.028003
 C         2.205997        -1.059524         0.869583
 C         2.047526        -2.162306        -0.156333
 C         2.189948        -0.887503        -0.952801
 O         2.231482        -0.790494        -2.324073
 H        -0.729648        -0.017821         1.483410
 H        -0.895218         0.610971        -0.093432
 H        -0.696571        -1.020392         0.272302
 H         1.707561         2.172604        -0.304160
 H         2.037761         1.573040         1.468974
 H         4.393621        -0.861180        -0.083081
 H         2.385525        -1.286192         1.859871
 H         2.793387        -2.923379        -0.191547
 H         1.032679        -2.433016        -0.241314
 H         1.267649        -0.906723        -2.678812
