19
Iteration:  1404
 C        -0.136356        -0.065823         0.126459
 C         1.372053        -0.036212         0.206810
 C         2.112779         1.327864         0.380091
 O         3.501222         0.982613         0.217353
 C         3.387102        -0.438123        -0.018099
 C         2.307970        -1.044742         0.975867
 C         1.949914        -2.121942        -0.088671
 C         2.032929        -0.857253        -0.941050
 O         1.771460        -0.803747        -2.314058
 H        -0.357703         0.159429         1.099214
 H        -0.552508         0.596692        -0.684286
 H        -0.521003        -1.057992        -0.206921
 H         1.858952         2.020466        -0.405207
 H         1.953342         1.642830         1.407244
 H         4.334674        -1.081617        -0.314589
 H         2.474230        -1.150696         2.076267
 H         2.686803        -2.941167        -0.054203
 H         0.905727        -2.512282        -0.099991
 H         2.585193        -0.554150        -2.885382
