19
Iteration:  1049
 C        -0.110461        -0.084220         0.058626
 C         1.421791        -0.066336         0.217861
 C         2.136021         1.294402         0.340619
 O         3.523816         0.932769         0.160928
 C         3.343265        -0.605403         0.010626
 C         2.364779        -1.179387         0.963591
 C         1.789162        -2.142655        -0.096144
 C         2.139974        -0.861519        -0.906314
 O         1.780762        -0.504475        -2.209423
 H        -0.466855        -0.282763        -1.022883
 H        -0.758627        -0.728633         0.798603
 H        -0.535988         0.888521         0.205459
 H         1.593655         1.949893        -0.448638
 H         1.916434         1.885614         1.259943
 H         4.423753        -0.785977        -0.266294
 H         2.483160        -1.264208         2.046631
 H         2.227451        -3.198698        -0.159413
 H         0.693893        -2.336136        -0.003872
 H         2.591708        -0.093030        -2.616552
