19
Iteration:  4408charge 0 multiplicity 1
 C        -0.169357        -0.108371         0.251384
 C         1.377082        -0.133993         0.199467
 C         1.846795         1.280817         0.295161
 O         3.340542         1.036484         0.128845
 C         3.350641        -0.321060         0.014814
 C         2.346123        -1.063522         0.933791
 C         2.197067        -2.183081        -0.112163
 C         2.166340        -0.849750        -0.862291
 O         1.941371        -0.824260        -2.306550
 H        -0.684605        -1.131478         0.218950
 H        -0.633586         0.594943         0.943623
 H        -0.477435         0.432470        -0.668996
 H         1.577449         2.018125        -0.497150
 H         1.682832         1.699081         1.274397
 H         4.398108        -0.776858        -0.124374
 H         2.396599        -1.040221         2.033908
 H         2.982719        -2.924297        -0.221905
 H         1.205723        -2.721486        -0.114680
 H         1.721162         0.142496        -2.564370
