19
Iteration:  4548charge 0 multiplicity 1
 C        -0.186351        -0.222441         0.091192
 C         1.356359        -0.123066         0.162089
 C         1.937635         1.341986         0.210563
 O         3.382614         1.055861         0.109634
 C         3.405546        -0.306677         0.035468
 C         2.348191        -1.000759         1.008108
 C         2.182821        -2.140033        -0.008876
 C         2.219168        -0.887747        -0.854162
 O         1.740238        -0.739020        -2.194387
 H        -0.412677         0.681954        -0.316063
 H        -0.662364        -0.901768        -0.601000
 H        -0.659850        -0.459276         1.031790
 H         1.581798         1.882914        -0.620561
 H         1.674089         1.898832         1.138256
 H         4.406638        -0.802386        -0.059559
 H         2.457196        -1.044830         2.136056
 H         2.946880        -2.880391        -0.252278
 H         1.314473        -2.827402        -0.039809
 H         2.275976        -1.394784        -2.709860
