19
Iteration:  2369
 C        -0.268794        -0.095915         0.306562
 C         1.317888        -0.083356         0.226802
 C         1.870916         1.227254         0.233780
 O         3.383689         0.951057         0.047586
 C         3.342760        -0.450318        -0.058477
 C         2.307998        -1.054669         1.020786
 C         2.129012        -2.172689        -0.095183
 C         2.087493        -0.856493        -0.860331
 O         2.063879        -0.605325        -2.277190
 H        -0.769647         0.628499         0.863251
 H        -0.668555        -0.064260        -0.790031
 H        -0.404834        -1.074470         0.902766
 H         1.628058         1.922904        -0.606777
 H         1.978250         1.760502         1.177899
 H         4.320677        -0.994238        -0.324551
 H         2.307951        -1.294339         2.052758
 H         3.021833        -2.790313        -0.517036
 H         1.238904        -2.787547        -0.045507
 H         2.788396         0.144550        -2.250345
