19
Iteration:  2216charge 0 multiplicity 1
 C        -0.240756        -0.211274         0.332437
 C         1.331553        -0.050255         0.296431
 C         1.968307         1.275212         0.217240
 O         3.353609         0.933883         0.040105
 C         3.320798        -0.486269        -0.053069
 C         2.317464        -0.969399         0.966788
 C         1.984159        -2.154002        -0.165623
 C         2.112734        -0.822449        -0.891315
 O         2.102697        -0.634314        -2.210479
 H        -0.712943         0.174599         1.145112
 H        -0.787629         0.071984        -0.607642
 H        -0.374861        -1.343115         0.275531
 H         1.542958         1.924554        -0.485923
 H         2.054242         1.913580         1.107491
 H         4.296206        -0.864212        -0.127605
 H         2.557888        -1.074036         1.992816
 H         2.791626        -2.841344        -0.422269
 H         1.047568        -2.620237        -0.200693
 H         2.804034         0.034933        -2.307934
