19
Iteration:  2830charge 0 multiplicity 1
 C        -0.173618        -0.152982         0.182348
 C         1.314800        -0.079339         0.178971
 C         1.991180         1.214151         0.287453
 O         3.368215         1.044486         0.178825
 C         3.349452        -0.338615         0.011312
 C         2.359816        -1.063726         0.990596
 C         2.137194        -2.166923        -0.154432
 C         2.151124        -0.834883        -0.915202
 O         1.848533        -0.683951        -2.236626
 H        -0.656372         0.431795         0.904569
 H        -0.542371         0.237617        -0.804229
 H        -0.578573        -1.105122         0.255887
 H         1.638504         1.898544        -0.497857
 H         1.579566         1.644315         1.365917
 H         4.207832        -0.948623         0.026700
 H         2.575232        -1.305064         2.063727
 H         2.929920        -2.807972        -0.404977
 H         1.146612        -2.585464        -0.202259
 H         2.721199        -1.004809        -2.673615
