19
Iteration:  1880
 C        -0.154746        -0.178105         0.455405
 C         1.304959        -0.052095         0.132385
 C         1.953927         1.334856         0.167555
 O         3.342053         0.971940         0.210568
 C         3.316377        -0.441590        -0.031267
 C         2.305453        -1.046136         0.904099
 C         1.881022        -2.156629        -0.110442
 C         2.185560        -0.831998        -0.968217
 O         2.204691        -0.734227        -2.323269
 H        -0.385104         0.044883         1.586844
 H        -0.773755         0.584058        -0.017520
 H        -0.587446        -1.199212         0.240434
 H         1.746259         1.932225        -0.814872
 H         1.606383         1.942015         1.103003
 H         4.324418        -0.842718        -0.189704
 H         2.425056        -1.188561         1.978775
 H         2.674853        -3.022913        -0.036819
 H         0.878415        -2.649802        -0.075229
 H         1.894776         0.201661        -2.493906
