19
Iteration:  2126
 C        -0.248639        -0.141137         0.214042
 C         1.329478        -0.134649         0.262820
 C         1.996208         1.347961         0.342971
 O         3.412347         1.022411         0.233543
 C         3.395759        -0.347742         0.072608
 C         2.341318        -1.058688         0.889700
 C         2.133540        -2.109755        -0.206260
 C         2.180166        -0.846927        -1.000341
 O         1.882500        -0.763287        -2.320958
 H        -0.451702         0.486425         1.048804
 H        -0.586920         0.394387        -0.711059
 H        -0.824242        -1.051808         0.162312
 H         1.455763         2.018355        -0.262134
 H         1.869492         1.817729         1.316066
 H         4.402775        -0.760118        -0.016787
 H         2.375819        -1.312863         2.055733
 H         2.858023        -2.918717        -0.292689
 H         1.085247        -2.573486        -0.108867
 H         1.622860        -1.600462        -2.621822
