19
Iteration:  2872
 C        -0.221729        -0.305201         0.365392
 C         1.282367        -0.093278         0.165861
 C         1.992904         1.306849         0.291707
 O         3.394390         1.033784         0.087568
 C         3.317666        -0.455544        -0.038205
 C         2.301277        -1.028849         0.971546
 C         1.982920        -2.062916        -0.066485
 C         2.091580        -0.852177        -0.932935
 O         2.093510        -0.658365        -2.348283
 H        -0.532087         0.046706         1.334893
 H        -0.684290         0.058617        -0.631563
 H        -0.335950        -1.417650         0.335061
 H         1.607626         2.119639        -0.345678
 H         1.818411         1.551064         1.417426
 H         4.310057        -0.816807        -0.157105
 H         2.501742        -1.034338         2.017747
 H         2.705757        -2.847870        -0.163854
 H         1.039948        -2.504161        -0.129109
 H         2.849674        -0.116414        -2.518275
