19
Iteration:  2550charge 0 multiplicity 1
 C        -0.147310        -0.223230         0.419811
 C         1.271540        -0.064314         0.149952
 C         1.922210         1.284727         0.212268
 O         3.390183         1.092912         0.210537
 C         3.386876        -0.365078         0.022309
 C         2.261438        -1.039188         0.904545
 C         1.986339        -2.173352        -0.110852
 C         2.193064        -0.910116        -0.994804
 O         2.031215        -0.673618        -2.314581
 H        -0.487413         0.065933         1.476479
 H        -0.574757         0.332668        -0.354655
 H        -0.422917        -1.215735         0.270212
 H         1.780197         1.962611        -0.569992
 H         1.742011         1.692195         1.235360
 H         4.318011        -0.670843        -0.264605
 H         2.090359        -1.132891         1.968982
 H         2.616324        -3.004413        -0.267579
 H         0.999376        -2.500730        -0.280876
 H         2.759940        -1.193185        -2.709747
