19
Iteration:  2204charge 0 multiplicity 1
 C        -0.116528        -0.299289         0.302109
 C         1.309727        -0.018479         0.195082
 C         2.018644         1.371574         0.245420
 O         3.355938         0.949486         0.001885
 C         3.307866        -0.465686        -0.005978
 C         2.249064        -1.094318         0.963025
 C         1.989985        -2.143509        -0.120211
 C         2.155905        -0.881047        -0.867520
 O         2.022967        -0.544957        -2.206071
 H        -0.526572         0.272713         1.056263
 H        -0.635765         0.057538        -0.642637
 H        -0.366137        -1.327102         0.679343
 H         1.746302         1.866120        -0.636429
 H         1.717954         1.822890         1.189812
 H         4.235689        -0.901477        -0.058132
 H         2.251494        -1.108332         2.066904
 H         2.782263        -2.892812        -0.224343
 H         1.018704        -2.614494        -0.068754
 H         2.789015        -0.126001        -2.564132
