19
Iteration:  2029charge 0 multiplicity 1
 C        -0.139586        -0.099492         0.460755
 C         1.276297        -0.098194         0.143246
 C         1.908251         1.293738         0.150820
 O         3.305574         0.979897         0.186503
 C         3.333868        -0.448590        -0.043819
 C         2.255434        -1.067436         0.911080
 C         2.089940        -2.252851        -0.066762
 C         2.130866        -0.897195        -0.992434
 O         2.211769        -0.560332        -2.337424
 H        -0.119950         0.091118         1.509099
 H        -0.974392         0.606061         0.048292
 H        -0.602181        -1.192193         0.367556
 H         1.725800         1.961526        -0.801459
 H         1.508306         1.841508         1.115087
 H         4.305362        -1.009750        -0.044808
 H         2.270853        -1.060912         2.108473
 H         2.895095        -2.930435        -0.068876
 H         1.144062        -2.807537         0.052379
 H         1.372624        -0.221118        -2.557344
