19
Iteration:  4225charge 0 multiplicity 1
 C        -0.191088        -0.375721         0.101793
 C         1.330786        -0.035099         0.185482
 C         1.987176         1.305338         0.467909
 O         3.427257         1.043112         0.218881
 C         3.405544        -0.372822        -0.087150
 C         2.325806        -1.032587         0.952247
 C         2.059026        -2.063119        -0.123854
 C         2.127173        -0.782577        -0.943277
 O         1.857601        -0.756579        -2.274264
 H        -0.754337         0.442146         0.134254
 H        -0.209586        -1.065203        -0.739389
 H        -0.498930        -0.868147         1.034474
 H         1.567352         2.027476        -0.238692
 H         1.880177         1.703145         1.547127
 H         4.448797        -0.825429        -0.265007
 H         2.445795        -1.197881         1.953387
 H         2.821652        -2.894105        -0.336079
 H         1.083299        -2.609103        -0.246528
 H         2.175356         0.133737        -2.515657
