19
Iteration:  3283
 C        -0.165662        -0.220771         0.295805
 C         1.324039        -0.056298         0.208362
 C         1.919361         1.285672         0.380818
 O         3.286092         1.001874         0.073924
 C         3.350262        -0.418811         0.035568
 C         2.302065        -1.010980         0.972279
 C         2.053504        -2.144904        -0.177594
 C         2.169584        -0.841449        -0.946294
 O         2.073304        -0.731816        -2.349445
 H        -0.422864         0.305564         1.276806
 H        -0.723860         0.314387        -0.411586
 H        -0.412509        -1.383766         0.258975
 H         1.547815         2.022700        -0.377356
 H         1.887069         1.606469         1.558611
 H         4.376437        -0.833076        -0.028788
 H         2.406357        -1.056652         2.024261
 H         2.971884        -2.754587        -0.196292
 H         1.164582        -2.687284        -0.067866
 H         2.069067         0.181584        -2.785968
