19
Iteration:  2165
 C        -0.182300        -0.177866         0.258588
 C         1.336073        -0.140755         0.139297
 C         1.946133         1.303206         0.287163
 O         3.349208         0.939737         0.227085
 C         3.344865        -0.436558        -0.033568
 C         2.361721        -1.007426         0.909736
 C         2.081061        -2.148196        -0.099378
 C         2.178201        -0.858840        -0.926872
 O         1.900828        -0.572026        -2.234865
 H        -0.565905         0.798270         0.783295
 H        -0.560646        -0.034465        -0.745232
 H        -0.657440        -1.077222         0.709865
 H         1.913339         1.915886        -0.684006
 H         1.797512         1.988119         1.182338
 H         4.395840        -0.839674        -0.304854
 H         2.528092        -1.233330         1.926943
 H         2.856118        -2.931649        -0.223396
 H         1.082589        -2.575325         0.011564
 H         2.468626        -1.143568        -2.867564
