19
Iteration:  2568charge 0 multiplicity 1
 C        -0.200431        -0.095595         0.357399
 C         1.352583        -0.100210         0.174085
 C         1.894396         1.309495         0.293555
 O         3.287164         0.995537         0.177372
 C         3.305782        -0.405492         0.008248
 C         2.345576        -1.094568         0.935766
 C         2.066172        -2.135109        -0.161802
 C         2.211629        -0.823036        -0.927397
 O         2.046514        -0.692028        -2.373862
 H        -0.160670         0.377237         1.304107
 H        -0.862025         0.374456        -0.459842
 H        -0.695820        -1.096971         0.500786
 H         1.488631         1.882393        -0.616041
 H         1.708365         1.817859         1.234109
 H         4.418061        -0.756977         0.098405
 H         2.504753        -1.232874         2.019907
 H         2.915291        -2.845933        -0.257574
 H         1.091820        -2.703978        -0.006635
 H         2.595035        -1.381870        -2.759293
