19
Iteration:  1390
 C        -0.223117        -0.050085         0.258296
 C         1.338175        -0.014038         0.224708
 C         2.103291         1.341585         0.320389
 O         3.519761         0.970445         0.204104
 C         3.369451        -0.431742        -0.052703
 C         2.317128        -1.079233         0.881459
 C         1.894205        -2.149471        -0.147278
 C         2.138223        -0.836846        -0.891338
 O         1.877507        -0.880957        -2.262794
 H        -0.875681         0.105241         1.187204
 H        -0.548853         0.938448        -0.347172
 H        -0.570607        -0.904706        -0.303778
 H         1.779929         1.992164        -0.513547
 H         1.890111         1.951849         1.260823
 H         4.364627        -0.773404        -0.095279
 H         2.428532        -1.210395         1.945512
 H         2.638917        -2.918784        -0.601585
 H         0.845642        -2.548308        -0.037017
 H         2.498455        -0.287286        -2.595979
