19
Iteration:  1136charge 0 multiplicity 1
 C        -0.154782         0.027580         0.511523
 C         1.359353        -0.022382         0.268171
 C         2.081847         1.324048         0.239801
 O         3.413095         0.844574         0.187477
 C         3.278667        -0.464018        -0.073713
 C         2.220981        -1.141646         0.920926
 C         1.795113        -2.123670        -0.186842
 C         2.104353        -0.828141        -0.991685
 O         2.229492        -0.670931        -2.353693
 H        -0.467853         1.014952         0.002279
 H        -0.629475        -0.915696         0.009785
 H        -0.372867         0.319139         1.543498
 H         1.621844         1.895355        -0.631466
 H         1.900080         1.994750         1.131628
 H         4.245382        -0.974343        -0.440717
 H         2.327300        -1.344972         2.010399
 H         2.572458        -2.960927        -0.341682
 H         0.758032        -2.517562        -0.020725
 H         1.602872        -1.401626        -2.784841
