19
Iteration:  4996charge 0 multiplicity 1
 C        -0.346051        -0.092983         0.455931
 C         1.255368        -0.118826         0.240859
 C         1.852573         1.335409         0.107482
 O         3.305504         1.066000        -0.112481
 C         3.288261        -0.362154         0.034045
 C         2.315145        -1.029080         1.049736
 C         2.156339        -2.189298        -0.026661
 C         2.207097        -0.942876        -0.947008
 O         2.210204        -0.817549        -2.267323
 H        -0.448106        -0.137334         1.542005
 H        -0.697423         0.864410         0.120919
 H        -0.831039        -0.812865        -0.181094
 H         1.404292         1.814746        -0.674290
 H         1.696238         1.938549         0.998053
 H         4.308055        -0.876012        -0.176081
 H         2.483299        -1.134549         2.027807
 H         3.069055        -2.875887        -0.079410
 H         1.099326        -2.537919         0.071122
 H         2.973302        -0.276983        -2.475972
