19
Iteration:   222
 C        -0.164364         0.175578         0.127583
 C         1.377290         0.011944         0.151425
 C         2.210708         1.351048         0.372993
 O         3.557410         0.825073         0.193024
 C         3.406757        -0.565816         0.051457
 C         2.239111        -1.047223         0.985034
 C         1.944988        -2.204773         0.020681
 C         2.113169        -0.943599        -1.003836
 O         1.672578        -0.676142        -2.344790
 H        -0.582497         0.966578         0.786770
 H        -0.442793         0.461437        -0.984283
 H        -0.640691        -0.753328         0.347746
 H         2.013185         2.031354        -0.424610
 H         2.116560         1.819147         1.376242
 H         4.472596        -1.117921        -0.029769
 H         2.071915        -1.156416         2.110476
 H         2.696947        -2.958319        -0.187158
 H         0.937344        -2.670028        -0.015888
 H         2.196126        -1.185351        -2.935167
