19
Iteration:   635
 C        -0.158391        -0.020215         0.511489
 C         1.321925         0.034217         0.150547
 C         2.129588         1.326052         0.144282
 O         3.471700         0.799912         0.078149
 C         3.262331        -0.539299        -0.043198
 C         2.180007        -1.057105         0.900720
 C         1.821431        -2.119693        -0.160205
 C         2.092536        -0.850147        -0.879868
 O         2.124972        -0.609669        -2.199145
 H        -0.358244         0.802503         1.167419
 H        -0.773581        -0.023114        -0.441831
 H        -0.424760        -0.902441         0.956831
 H         1.760102         1.931875        -0.705752
 H         2.024371         1.988595         1.082756
 H         4.281928        -1.047072        -0.248853
 H         2.417401        -1.202164         1.958432
 H         2.677349        -2.814556        -0.260440
 H         0.768720        -2.484042        -0.252458
 H         2.343547        -1.428312        -2.728171
