19
Iteration:  1585charge 0 multiplicity 1
 C        -0.103432        -0.092346         0.112938
 C         1.347371        -0.058853         0.177320
 C         1.997435         1.335256         0.289326
 O         3.469581         0.930870         0.113042
 C         3.337631        -0.444477        -0.020497
 C         2.255599        -1.120761         0.977781
 C         2.100880        -2.225862         0.046916
 C         2.102496        -0.831601        -0.950342
 O         1.810261        -0.564758        -2.231449
 H        -0.675408         0.018127         1.208239
 H        -0.398518         0.739674        -0.506159
 H        -0.578892        -1.052294        -0.169618
 H         1.738025         1.884531        -0.695669
 H         1.916800         1.710083         1.351339
 H         4.273915        -0.976906        -0.014464
 H         2.248562        -1.178744         2.101650
 H         2.947975        -2.895296        -0.099787
 H         1.145849        -2.714799        -0.104444
 H         2.497653        -0.973089        -2.699554
