19
Iteration:    73
 C        -0.167135         0.028134         0.288662
 C         1.361440        -0.007861         0.145488
 C         2.249972         1.354287         0.296805
 O         3.582129         0.804182         0.175410
 C         3.382783        -0.514174        -0.045566
 C         2.147813        -1.006388         1.012399
 C         1.811753        -2.160941        -0.076940
 C         2.064313        -0.871479        -0.945891
 O         1.906050        -0.781404        -2.360739
 H        -0.476361         0.813832         0.996731
 H        -0.473015         0.459439        -0.650374
 H        -0.724417        -0.953826         0.486501
 H         2.035031         2.358989        -0.354758
 H         2.040387         1.754519         1.349049
 H         4.253734        -1.090127        -0.306452
 H         2.122565        -1.091121         2.182549
 H         2.679374        -2.882027        -0.081247
 H         0.766416        -2.602553        -0.166691
 H         1.814020         0.143181        -2.516190
