19
Iteration:  1298charge 0 multiplicity 1
 C        -0.150755        -0.037985         0.310142
 C         1.381692         0.043246         0.297117
 C         2.078240         1.327335         0.258162
 O         3.446142         0.913722         0.094405
 C         3.307020        -0.485964        -0.058552
 C         2.267708        -1.123958         0.960483
 C         1.808872        -2.142687        -0.105604
 C         2.096173        -0.846471        -0.883414
 O         2.100658        -0.662310        -2.295745
 H        -0.732673         0.095466         1.350173
 H        -0.574103         0.675369        -0.335696
 H        -0.452473        -1.115410         0.003178
 H         1.855735         1.871324        -0.692926
 H         1.977377         2.125223         1.026958
 H         4.276013        -1.050588        -0.319341
 H         2.560190        -1.390452         2.005099
 H         2.584150        -2.888806        -0.274326
 H         0.813210        -2.596898        -0.152229
 H         1.538460        -1.394774        -2.649486
