19
Iteration:  3371
 C        -0.264536        -0.096982         0.311457
 C         1.253320        -0.164681         0.158053
 C         1.920112         1.302201         0.234527
 O         3.327097         1.002432         0.155145
 C         3.291636        -0.389685        -0.079379
 C         2.378379        -1.042161         0.927928
 C         2.198412        -2.235856        -0.089013
 C         2.162744        -0.892746        -0.948642
 O         2.014797        -0.651878        -2.242617
 H        -0.705104        -0.454553         1.294839
 H        -0.609581         0.876653         0.389907
 H        -0.761800        -0.627194        -0.600994
 H         1.622952         2.091705        -0.462041
 H         1.677895         1.680549         1.387518
 H         4.393189        -0.703540        -0.168065
 H         2.364837        -1.121784         1.977951
 H         3.118413        -2.849071        -0.070019
 H         1.295925        -2.771449         0.160209
 H         2.900999        -0.344721        -2.616624
