19
Iteration:  1500
 C        -0.267613        -0.093353         0.488561
 C         1.319138        -0.029898         0.090681
 C         2.039911         1.266463         0.215383
 O         3.425865         0.941683         0.162518
 C         3.351454        -0.493367         0.029277
 C         2.224198        -1.046496         0.877236
 C         1.880162        -2.153246        -0.080205
 C         2.141048        -0.803146        -0.961467
 O         2.229926        -0.660940        -2.391419
 H        -0.400254         0.866193         0.965592
 H        -1.047030        -0.520728        -0.200670
 H        -0.311863        -0.873515         1.248413
 H         1.849503         1.937118        -0.641336
 H         1.878732         1.658984         1.269425
 H         4.417570        -0.855615        -0.128274
 H         2.170983        -1.171503         1.992814
 H         2.743080        -2.901589        -0.004984
 H         0.811263        -2.564149        -0.077893
 H         1.203237        -0.678878        -2.607738
