19
Iteration:   124charge 0 multiplicity 1
 C        -0.141468         0.191512         0.476063
 C         1.319765        -0.027167         0.170066
 C         2.134999         1.280017         0.283353
 O         3.493054         0.891014         0.119220
 C         3.246501        -0.522285        -0.059637
 C         2.216821        -1.087238         0.949347
 C         1.784771        -2.179324        -0.034634
 C         2.050126        -0.917233        -1.011269
 O         2.124810        -0.721736        -2.422306
 H        -0.222102         0.361014         1.558633
 H        -0.573925         1.120099        -0.057036
 H        -0.747514        -0.614833         0.201284
 H         1.779323         1.785728        -0.524924
 H         2.022516         1.807980         1.210469
 H         4.253961        -1.126675        -0.133195
 H         2.306383        -1.083771         2.058522
 H         2.283597        -3.135023        -0.176074
 H         0.743814        -2.469159         0.152708
 H         2.986160        -1.067935        -2.653812
