19
Iteration:   105charge 0 multiplicity 1
 C        -0.135284         0.131551         0.435564
 C         1.372661         0.022357         0.269291
 C         2.106914         1.379852         0.293810
 O         3.489278         0.870628         0.136956
 C         3.367796        -0.529556        -0.088906
 C         2.184434        -1.100103         0.912017
 C         1.705497        -2.095325        -0.205942
 C         2.134404        -0.849941        -0.903183
 O         2.028230        -0.882340        -2.312174
 H        -0.408813         0.557385         1.399402
 H        -0.500217         0.785289        -0.344640
 H        -0.716521        -0.782912         0.267931
 H         1.901079         2.067191        -0.640732
 H         2.034763         1.850338         1.298905
 H         4.372060        -0.969200        -0.235587
 H         2.303595        -1.392094         2.027292
 H         2.366461        -2.993223        -0.353808
 H         0.649523        -2.451007        -0.366908
 H         2.934850        -0.849545        -2.722378
