19
Iteration:  4023
 C        -0.161095        -0.335587         0.087258
 C         1.377855        -0.128539         0.209566
 C         1.962701         1.260730         0.432538
 O         3.359544         0.986098         0.276966
 C         3.390520        -0.347523         0.030763
 C         2.424225        -1.142900         0.907544
 C         2.104247        -2.136808        -0.223051
 C         2.163902        -0.748660        -0.938773
 O         1.791192        -0.561902        -2.271423
 H        -0.545770        -1.021642         0.952582
 H        -0.581504         0.655174         0.364517
 H        -0.479684        -0.493903        -0.965959
 H         1.581900         1.743316        -0.429347
 H         1.762568         1.911802         1.346947
 H         4.321204        -0.742961        -0.307073
 H         2.580071        -1.432838         2.006824
 H         2.834872        -2.943456        -0.387554
 H         1.103939        -2.683806        -0.127228
 H         1.914022         0.323500        -2.529206
