19
Iteration:  4821charge 0 multiplicity 1
 C        -0.121073        -0.326464         0.464433
 C         1.272434        -0.046060         0.118116
 C         1.902613         1.404166         0.085799
 O         3.371595         1.006243        -0.072189
 C         3.302558        -0.351430         0.016904
 C         2.247088        -0.816192         0.993814
 C         1.955290        -2.102930         0.062839
 C         2.188998        -0.977894        -0.872934
 O         2.169890        -0.870075        -2.302337
 H        -0.563972        -1.152215        -0.206009
 H        -0.147532        -0.455941         1.554573
 H        -0.823484         0.464370         0.189736
 H         1.406337         1.930142        -0.860156
 H         1.648933         2.035809         0.973477
 H         4.387282        -0.672033         0.011909
 H         2.209669        -0.754175         2.037309
 H         2.472471        -3.071941         0.137314
 H         0.896049        -2.441195         0.199013
 H         2.933573        -0.315055        -2.406743
