19
Iteration:  4573
 C        -0.153518        -0.316141         0.150802
 C         1.362223        -0.011337         0.165236
 C         1.959841         1.374384         0.242547
 O         3.405605         1.054692         0.163600
 C         3.375817        -0.299112        -0.019546
 C         2.397496        -0.957453         0.960699
 C         2.055090        -2.127316         0.026207
 C         2.154209        -0.873518        -0.880180
 O         1.818003        -0.785334        -2.251166
 H        -0.809797         0.522932         0.020166
 H        -0.253869        -0.911126        -0.744473
 H        -0.446689        -1.082099         0.802255
 H         1.603253         1.934373        -0.672468
 H         1.705968         1.989269         1.147763
 H         4.376907        -0.906473        -0.161741
 H         2.461050        -0.969863         1.987866
 H         2.729775        -3.045194        -0.142354
 H         1.017848        -2.630471         0.117548
 H         2.275485        -1.522941        -2.619432
