19
Iteration:   295
 C        -0.113490         0.030636         0.411336
 C         1.342896         0.006294         0.140338
 C         2.185134         1.299631         0.165486
 O         3.517611         0.768805         0.095643
 C         3.336536        -0.596232        -0.042503
 C         2.151236        -1.009169         1.015066
 C         1.662070        -2.092805        -0.033440
 C         2.092113        -0.903644        -0.919387
 O         2.141048        -0.582049        -2.324513
 H        -0.337140         0.652066         1.300849
 H        -0.721461         0.500197        -0.363629
 H        -0.425940        -0.967801         0.644071
 H         1.867093         1.938175        -0.764994
 H         2.015349         1.938057         1.059844
 H         4.291259        -1.053261        -0.210329
 H         2.008282        -0.962121         2.043646
 H         2.277894        -3.006231        -0.186380
 H         0.642797        -2.329831         0.168878
 H         2.030521        -1.366711        -2.799771
