19
Iteration:  1284charge 0 multiplicity 1
 C        -0.181978        -0.040517         0.227148
 C         1.321108        -0.060055         0.221312
 C         2.133491         1.384860         0.269598
 O         3.480911         0.901847         0.191011
 C         3.359361        -0.525705        -0.070042
 C         2.301811        -1.068349         0.954574
 C         1.916127        -2.122296        -0.115127
 C         2.130430        -0.834952        -0.911491
 O         1.920808        -0.685747        -2.267940
 H        -0.498777         0.466385         1.158603
 H        -0.426100         0.542935        -0.707824
 H        -0.698506        -1.088997         0.172554
 H         1.711424         2.134508        -0.495991
 H         1.976502         1.760564         1.282783
 H         4.431957        -0.883473        -0.136626
 H         2.403195        -1.108080         2.050842
 H         2.444638        -3.020957        -0.351775
 H         0.882119        -2.400036         0.055121
 H         1.641636        -1.505555        -2.629730
