19
Iteration:  2025charge 0 multiplicity 1
 C        -0.200509        -0.108707         0.455097
 C         1.276240        -0.106287         0.121908
 C         1.900468         1.291831         0.159534
 O         3.321140         0.945597         0.207873
 C         3.359581        -0.449751        -0.082512
 C         2.250299        -1.047561         0.906438
 C         2.101031        -2.212986        -0.046623
 C         2.149634        -0.859364        -0.978117
 O         2.195920        -0.576893        -2.341356
 H        -0.196572         0.114774         1.595318
 H        -0.865390         0.595044        -0.014414
 H        -0.512786        -1.109947         0.468833
 H         1.765039         1.869676        -0.760137
 H         1.530612         1.777844         1.100267
 H         4.353912        -0.960025         0.084447
 H         2.286753        -1.163638         2.025862
 H         2.985900        -2.933566        -0.137031
 H         1.122504        -2.760386         0.067338
 H         1.278484        -0.264043        -2.655234
