19
Iteration:  4813
 C        -0.075750        -0.345929         0.483133
 C         1.315522        -0.041115         0.073411
 C         1.887920         1.416941         0.030001
 O         3.331968         1.061255        -0.031410
 C         3.260569        -0.367395        -0.018165
 C         2.260500        -0.850253         1.030988
 C         1.911846        -2.177067         0.094085
 C         2.171371        -0.941355        -0.895455
 O         2.171286        -0.865277        -2.313661
 H        -0.467432        -1.223028        -0.116517
 H        -0.249698        -0.522937         1.596566
 H        -0.692722         0.583518         0.149947
 H         1.715871         2.151905        -0.820100
 H         1.813562         1.954568         1.003057
 H         4.230992        -1.027441         0.184420
 H         2.316691        -0.663149         2.092339
 H         2.672107        -2.850702         0.149342
 H         0.864994        -2.364626         0.216715
 H         3.011641        -0.354763        -2.447163
