19
Iteration:  3415charge 0 multiplicity 1
 C        -0.207985        -0.366859         0.418933
 C         1.280954        -0.002878         0.148342
 C         1.914927         1.372853         0.302198
 O         3.354344         1.087627         0.048701
 C         3.371254        -0.397852         0.010380
 C         2.270308        -1.049451         0.895821
 C         1.900390        -2.137520        -0.159114
 C         2.268760        -0.862199        -0.885584
 O         2.112698        -0.763291        -2.259859
 H        -0.353405        -0.815425         1.485672
 H        -0.650424         0.573137         0.571959
 H        -0.584217        -0.927638        -0.548996
 H         1.597303         2.098287        -0.411546
 H         1.798723         1.909121         1.348392
 H         4.426831        -0.766280        -0.372462
 H         2.469859        -1.239704         1.917202
 H         2.569520        -3.012355        -0.331434
 H         0.802489        -2.261928        -0.335204
 H         2.920160        -0.270132        -2.641991
