19
Iteration:  4781
 C        -0.257304        -0.153389         0.370997
 C         1.293442        -0.089334         0.228031
 C         1.871087         1.322790         0.037420
 O         3.358559         1.054372         0.004578
 C         3.311895        -0.308989        -0.020745
 C         2.316534        -0.920453         1.014938
 C         2.126803        -2.120851         0.010662
 C         2.177189        -0.924157        -0.857737
 O         2.078336        -0.928115        -2.246176
 H        -0.736911        -1.059977        -0.056588
 H        -0.715243        -0.197017         1.400314
 H        -0.700950         0.747072        -0.184393
 H         1.729115         1.876284        -0.855725
 H         1.807929         2.054258         0.855650
 H         4.341076        -0.892879         0.023854
 H         2.415885        -0.932047         2.105084
 H         2.870935        -2.963161        -0.047168
 H         1.123694        -2.687208         0.033947
 H         2.850830        -0.487404        -2.736871
