19
Iteration:  1879
 C        -0.145833        -0.181237         0.465157
 C         1.307162        -0.042263         0.130255
 C         1.953082         1.328397         0.170464
 O         3.339148         0.971859         0.211784
 C         3.315390        -0.450555        -0.032588
 C         2.294056        -1.029392         0.895075
 C         1.891670        -2.154901        -0.111847
 C         2.173766        -0.832065        -0.963482
 O         2.209773        -0.732811        -2.325703
 H        -0.328753         0.043394         1.571624
 H        -0.764214         0.607824        -0.032787
 H        -0.586779        -1.237268         0.212648
 H         1.718103         1.952380        -0.787463
 H         1.610454         1.915770         1.094312
 H         4.326138        -0.871954        -0.190316
 H         2.401563        -1.211223         2.009480
 H         2.675553        -3.041880        -0.009814
 H         0.863942        -2.646947        -0.081871
 H         1.892137         0.154986        -2.527368
