19
Iteration:  2776charge 0 multiplicity 1
 C        -0.186808        -0.231803         0.251949
 C         1.353708        -0.114610         0.112487
 C         1.900896         1.277826         0.298986
 O         3.355024         1.001947         0.170268
 C         3.414325        -0.414725         0.041664
 C         2.362928        -0.993037         0.958511
 C         2.092954        -2.109061        -0.091185
 C         2.136046        -0.858643        -0.944819
 O         1.985162        -0.604300        -2.290849
 H        -0.476757         0.201197         1.169136
 H        -0.545726         0.398555        -0.596442
 H        -0.605257        -1.163545         0.136044
 H         1.624766         1.892108        -0.527076
 H         1.637706         1.692006         1.251417
 H         4.360525        -0.903014        -0.047851
 H         2.197259        -1.032186         2.061204
 H         2.868801        -2.827522        -0.261443
 H         1.210981        -2.776661        -0.052093
 H         1.455997        -1.355800        -2.657163
