19
Iteration:  4862charge 0 multiplicity 1
 C        -0.204128        -0.021420         0.238022
 C         1.323201        -0.055964         0.247367
 C         1.873739         1.302947         0.166827
 O         3.267990         1.091130        -0.024373
 C         3.339133        -0.340437        -0.007732
 C         2.355387        -0.928013         0.984673
 C         2.186706        -2.233503         0.046558
 C         2.113997        -0.971049        -0.865460
 O         2.068044        -0.990221        -2.228397
 H        -0.597980        -0.870902        -0.347847
 H        -0.490167         0.047069         1.266957
 H        -0.694715         0.774762        -0.292528
 H         1.573755         1.854521        -0.679516
 H         1.759329         2.037980         0.952396
 H         4.234783        -0.814363        -0.197312
 H         2.345523        -0.980986         2.138743
 H         3.300245        -2.690824        -0.139634
 H         1.227033        -2.816655         0.202044
 H         2.161353        -0.048091        -2.505887
