19
Iteration:  3936
 C        -0.211148        -0.109849         0.559154
 C         1.300931        -0.177949         0.294609
 C         1.840019         1.184189         0.442334
 O         3.235665         1.001411         0.206210
 C         3.290727        -0.393097        -0.088315
 C         2.311491        -1.228634         0.897965
 C         2.146730        -2.168864        -0.389366
 C         2.150360        -0.756761        -0.987819
 O         2.214061        -0.525737        -2.421246
 H        -0.433622         0.614375         1.324384
 H        -0.637343         0.026729        -0.412031
 H        -0.778359        -0.958333         0.943954
 H         1.454035         1.904866        -0.326903
 H         1.690155         1.569999         1.429437
 H         4.235386        -0.794390        -0.508857
 H         2.464684        -1.764133         1.872911
 H         3.077842        -2.828515        -0.516775
 H         1.094229        -2.658620        -0.370647
 H         2.741221         0.240210        -2.663567
