19
Iteration:  4803charge 0 multiplicity 1
 C        -0.130724        -0.297666         0.439941
 C         1.329729        -0.003901         0.097334
 C         1.935757         1.384812         0.011254
 O         3.303175         1.096895        -0.007379
 C         3.308242        -0.451945         0.010911
 C         2.256113        -0.899953         0.983682
 C         1.934880        -2.126872         0.154612
 C         2.129046        -0.898985        -0.905239
 O         2.177056        -0.869367        -2.291135
 H        -0.545855        -1.216078         0.011692
 H        -0.214496        -0.504859         1.551715
 H        -0.881872         0.545582         0.228696
 H         1.667783         2.022291        -0.830323
 H         1.643320         1.905022         0.950965
 H         4.428962        -0.755678        -0.179408
 H         2.390493        -0.813748         2.077235
 H         2.740715        -2.868257         0.069665
 H         1.059353        -2.794634         0.157446
 H         2.922876        -0.476090        -2.702523
