19
Iteration:  1183charge 0 multiplicity 1
 C        -0.130826        -0.083345         0.440144
 C         1.286704        -0.018383         0.143650
 C         2.113895         1.291256         0.214581
 O         3.462714         0.877239         0.001993
 C         3.343890        -0.603871        -0.011021
 C         2.185158        -1.050740         0.961678
 C         1.803006        -2.134326        -0.038144
 C         2.116307        -0.858880        -0.929586
 O         2.171380        -0.590961        -2.298718
 H        -0.526648         0.889907         0.540599
 H        -0.685941        -0.711628        -0.409859
 H        -0.229788        -0.482498         1.435648
 H         1.928450         2.181478        -0.488841
 H         1.814117         1.662359         1.205124
 H         4.249735        -1.126125         0.006410
 H         1.908126        -1.138336         2.014686
 H         2.479641        -3.020515        -0.131547
 H         0.751061        -2.370026        -0.282376
 H         1.615328         0.177968        -2.449712
