19
Iteration:  4107
 C        -0.164013        -0.354245         0.551222
 C         1.332514        -0.021511         0.167954
 C         1.907465         1.310401         0.352016
 O         3.315160         1.054918         0.158737
 C         3.305353        -0.406236        -0.017211
 C         2.298868        -1.110310         0.874021
 C         1.910315        -2.121271        -0.238503
 C         2.139459        -0.782491        -0.978301
 O         2.232304        -0.696480        -2.389971
 H        -0.584415        -0.935298        -0.307634
 H        -0.173638        -0.850521         1.555545
 H        -0.860588         0.432589         0.328198
 H         1.390414         2.173521        -0.152281
 H         1.877763         1.480017         1.396767
 H         4.467099        -0.558577        -0.126183
 H         2.243303        -1.285053         1.886891
 H         2.638308        -2.947549        -0.477363
 H         0.918863        -2.467521        -0.152576
 H         2.621160         0.201743        -2.715413
