19
Iteration:  4728charge 0 multiplicity 1
 C        -0.229037        -0.197656         0.084107
 C         1.344920        -0.032822         0.161018
 C         1.949039         1.298750         0.309494
 O         3.349909         1.132866         0.029977
 C         3.428040        -0.375767        -0.016424
 C         2.351786        -0.895226         1.016288
 C         2.124004        -2.097031         0.084223
 C         2.165815        -0.951026        -0.867382
 O         1.910337        -0.978034        -2.269449
 H        -0.562557        -1.116677         0.455001
 H        -0.641470         0.656028         0.589608
 H        -0.723917        -0.199297        -0.899148
 H         1.596244         1.931572        -0.495122
 H         1.827710         1.913896         1.207661
 H         4.424061        -0.939875        -0.102358
 H         2.608572        -0.806096         2.134127
 H         2.964675        -2.964278         0.075094
 H         1.203688        -2.754195         0.172793
 H         1.579052        -0.044732        -2.487407
