19
Iteration:   924
 C        -0.128796        -0.003868         0.177321
 C         1.337224        -0.013117         0.275216
 C         2.141754         1.345313         0.358537
 O         3.459126         0.824401         0.158496
 C         3.296322        -0.519889        -0.024325
 C         2.250509        -1.061346         0.949414
 C         1.983932        -2.123585        -0.151687
 C         2.128272        -0.841903        -0.911449
 O         1.862869        -0.725942        -2.306369
 H        -0.724492         0.904894         0.035354
 H        -0.504252        -0.658883        -0.593208
 H        -0.568522        -0.484412         1.154854
 H         1.834721         2.017000        -0.458647
 H         2.169099         1.855640         1.371385
 H         4.273121        -1.052228        -0.176217
 H         2.231512        -1.133555         2.095688
 H         2.858244        -2.746361        -0.220197
 H         1.074114        -2.727377        -0.335044
 H         2.146042         0.210605        -2.506424
