19
Iteration:  2182charge 0 multiplicity 1
 C        -0.224547        -0.225784         0.275248
 C         1.345684        -0.109540         0.177406
 C         1.976971         1.246925         0.192620
 O         3.466075         1.029976         0.132051
 C         3.423961        -0.414759         0.049897
 C         2.292671        -1.068590         0.980965
 C         1.993299        -2.221804        -0.025259
 C         2.162711        -0.870749        -0.964386
 O         1.894649        -0.489843        -2.329257
 H        -0.680004         0.436714         0.909677
 H        -0.791689        -0.091736        -0.691763
 H        -0.434128        -1.160197         0.845140
 H         1.519801         1.813863        -0.555300
 H         1.861624         1.538324         1.246952
 H         4.381062        -0.791665         0.131656
 H         2.303218        -1.017196         2.104820
 H         2.733571        -3.015469        -0.120347
 H         0.978564        -2.629055        -0.025475
 H         2.761202        -0.595685        -2.855169
