19
Iteration:  2919charge 0 multiplicity 1
 C        -0.231612        -0.029885         0.460508
 C         1.308590        -0.174217         0.227527
 C         1.835402         1.230218         0.259734
 O         3.311440         1.026528         0.129744
 C         3.325394        -0.361750         0.008652
 C         2.285061        -1.055122         0.979886
 C         2.102957        -2.228399        -0.154662
 C         2.283512        -0.907703        -0.949108
 O         2.135255        -0.708459        -2.447078
 H        -0.214913         0.245207         1.489613
 H        -0.540644         0.787837        -0.255265
 H        -0.844911        -0.852043         0.290282
 H         1.528998         1.784329        -0.630283
 H         1.527803         1.833978         1.297082
 H         4.383726        -0.753179        -0.101901
 H         2.180072        -1.439421         2.089949
 H         2.934774        -2.878025        -0.255161
 H         1.022690        -2.642813        -0.128226
 H         2.023141         0.289142        -2.639346
