19
Iteration:   819
 C        -0.099599         0.068273         0.542441
 C         1.280891         0.024493         0.076226
 C         2.042419         1.279574         0.378615
 O         3.419375         0.909975         0.077097
 C         3.296057        -0.517966         0.028771
 C         2.110674        -0.981105         0.883859
 C         1.914044        -2.127363        -0.114900
 C         2.173384        -0.912812        -1.003343
 O         2.109189        -0.850330        -2.433557
 H        -0.059247        -0.225917         1.663148
 H        -0.796845         1.073966         0.540370
 H        -0.719220        -0.611575        -0.014385
 H         1.812374         2.205228        -0.118424
 H         1.896966         1.515265         1.412734
 H         4.273993        -0.908549        -0.084070
 H         2.001403        -1.003600         1.923568
 H         2.781621        -2.870748        -0.195291
 H         0.885411        -2.508452        -0.176652
 H         2.905906        -0.477765        -2.686188
