19
Iteration:   954charge 0 multiplicity 1
 C        -0.181615         0.036539         0.418408
 C         1.322664        -0.073489         0.195614
 C         2.081610         1.324878         0.432933
 O         3.416686         0.977886         0.200792
 C         3.373263        -0.422329        -0.016937
 C         2.373946        -1.152643         0.843440
 C         1.728613        -2.117400        -0.207204
 C         2.096457        -0.854945        -1.018803
 O         2.113800        -0.865700        -2.389595
 H        -0.661594         0.825864        -0.064725
 H        -0.825182        -0.945362         0.198798
 H        -0.299951         0.373679         1.472174
 H         1.721990         2.059339        -0.274494
 H         1.943006         1.796435         1.422835
 H         4.340285        -0.930303        -0.321647
 H         2.207993        -1.257988         1.969869
 H         2.280048        -3.046703        -0.436506
 H         0.635141        -2.248056        -0.052059
 H         2.691763        -0.171004        -2.592212
