19
Iteration:  3262charge 0 multiplicity 1
 C        -0.221424        -0.066692         0.401309
 C         1.247544        -0.151769         0.235022
 C         1.902940         1.288725         0.353915
 O         3.291779         1.115552         0.045827
 C         3.350036        -0.330658        -0.024186
 C         2.234952        -1.182945         0.905729
 C         2.132635        -2.207197        -0.230659
 C         2.191037        -0.882500        -0.885827
 O         2.150240        -0.773513        -2.276697
 H        -0.318060         0.778706         1.204797
 H        -0.628716         0.299259        -0.539320
 H        -0.662029        -1.181999         0.637229
 H         1.569990         1.928816        -0.499965
 H         1.843605         1.667945         1.388448
 H         4.415208        -0.603635        -0.224773
 H         2.342854        -1.472776         1.894242
 H         2.970980        -2.892106        -0.452075
 H         1.122156        -2.602330        -0.277634
 H         2.271986         0.146291        -2.426343
