19
Iteration:  4933
 C        -0.206992        -0.359073         0.209524
 C         1.349640        -0.006885         0.200293
 C         2.002277         1.369773         0.183784
 O         3.380558         1.076416         0.075954
 C         3.357503        -0.388589        -0.012572
 C         2.320763        -0.890747         1.018216
 C         2.037901        -2.093105         0.037403
 C         2.166574        -0.864567        -0.901283
 O         1.963916        -0.947125        -2.249208
 H        -0.484543        -1.224087         0.767985
 H        -0.759898         0.533116         0.584703
 H        -0.638418        -0.773475        -0.754462
 H         1.543913         1.898401        -0.762195
 H         1.781699         2.138295         0.965197
 H         4.486541        -0.588692        -0.236119
 H         2.360187        -0.808281         2.101349
 H         2.801973        -2.822192        -0.050493
 H         0.972812        -2.368563         0.149332
 H         2.148660        -0.112276        -2.737674
