19
Iteration:    76charge 0 multiplicity 1
 C        -0.157908         0.035000         0.292215
 C         1.359359         0.003013         0.147725
 C         2.246242         1.363768         0.303136
 O         3.569823         0.805236         0.164229
 C         3.361774        -0.521447        -0.006194
 C         2.173674        -1.011804         1.011919
 C         1.815478        -2.143791        -0.105158
 C         2.048252        -0.855151        -0.935770
 O         1.912389        -0.812590        -2.363826
 H        -0.425977         0.798320         1.072154
 H        -0.581863         0.451909        -0.629235
 H        -0.700369        -0.992976         0.482982
 H         2.101059         2.232148        -0.335346
 H         2.037798         1.758927         1.332904
 H         4.235266        -1.059272        -0.306028
 H         2.151792        -1.136549         2.095933
 H         2.625346        -2.889749        -0.152437
 H         0.788802        -2.547339        -0.160010
 H         1.949101         0.201091        -2.627553
