19
Iteration:  4452
 C        -0.220013        -0.289414         0.506040
 C         1.244746        -0.068485         0.167041
 C         1.939654         1.307838         0.201671
 O         3.354452         1.062095         0.067264
 C         3.339436        -0.434959        -0.020120
 C         2.295695        -0.960260         0.960667
 C         1.941161        -2.072808        -0.081777
 C         2.190943        -0.856391        -0.972821
 O         2.196417        -0.805016        -2.339152
 H        -0.542362        -1.098187        -0.291806
 H        -0.365781        -0.757794         1.505826
 H        -0.814767         0.654746         0.459655
 H         1.618290         1.976451        -0.661452
 H         1.799383         1.884428         1.160997
 H         4.474719        -0.664684         0.063593
 H         2.357025        -1.087962         2.037433
 H         2.751635        -2.847518        -0.176247
 H         0.993392        -2.708843        -0.158862
 H         2.192905         0.176736        -2.647779
