19
Iteration:  3422
 C        -0.181726        -0.352757         0.399104
 C         1.276027        -0.017580         0.109123
 C         1.917933         1.354930         0.311661
 O         3.370592         1.085045         0.071645
 C         3.385038        -0.415360        -0.042922
 C         2.314297        -1.069009         0.944113
 C         1.871370        -2.095336        -0.139732
 C         2.226128        -0.821278        -0.898693
 O         2.115116        -0.777457        -2.269003
 H        -0.241114        -0.870838         1.334534
 H        -0.872405         0.535924         0.573499
 H        -0.738614        -0.972498        -0.331653
 H         1.559801         2.026725        -0.490887
 H         1.780209         1.776474         1.213802
 H         4.458753        -0.648305        -0.090159
 H         2.399416        -1.140354         2.063058
 H         2.563512        -2.981897        -0.393152
 H         0.887847        -2.382109        -0.355131
 H         2.778494        -0.118065        -2.485576
