19
Iteration:  3396
 C        -0.173003        -0.236341         0.373189
 C         1.289168        -0.079081         0.250468
 C         1.942820         1.289968         0.314029
 O         3.320263         1.035349         0.050821
 C         3.301791        -0.399758        -0.032263
 C         2.299680        -1.052306         0.981116
 C         2.030483        -2.141744        -0.108542
 C         2.150900        -0.839271        -0.958700
 O         2.109557        -0.703915        -2.380685
 H        -0.449164        -0.736033         1.319304
 H        -0.798277         0.680482         0.568920
 H        -0.484875        -0.772435        -0.484614
 H         1.456508         1.960159        -0.530964
 H         1.829568         1.913116         1.367003
 H         4.343472        -0.615811         0.113801
 H         2.265291        -1.119168         2.088772
 H         2.858560        -2.777000        -0.266798
 H         0.999097        -2.653509        -0.102117
 H         3.052361        -0.531101        -2.559887
