19
Iteration:  1807charge 0 multiplicity 1
 C        -0.082367        -0.042578         0.173711
 C         1.355330        -0.138121         0.280474
 C         1.949221         1.292726         0.332141
 O         3.315444         1.021961         0.149668
 C         3.359920        -0.467720        -0.026952
 C         2.359148        -1.120933         0.937235
 C         2.023209        -2.131482        -0.047181
 C         2.037066        -0.857344        -0.913868
 O         2.057612        -0.650712        -2.328357
 H        -0.542871         0.514686         1.088215
 H        -0.408407         0.532777        -0.733273
 H        -0.586221        -0.983430        -0.001465
 H         1.537813         2.043421        -0.297034
 H         1.680986         1.761588         1.264868
 H         4.339421        -0.845357        -0.276668
 H         2.623974        -1.290594         1.927938
 H         2.664693        -2.943680        -0.226875
 H         1.047577        -2.546128         0.017624
 H         1.713748        -1.444116        -2.651764
