19
Iteration:  4443charge 0 multiplicity 1
 C        -0.237293        -0.251076         0.465497
 C         1.258956        -0.019082         0.215456
 C         1.899788         1.380249         0.216237
 O         3.349238         0.983353         0.073669
 C         3.337787        -0.356553        -0.013110
 C         2.345836        -1.045284         0.955387
 C         2.029192        -2.160948        -0.081923
 C         2.192550        -0.846797        -0.973210
 O         2.177902        -0.803431        -2.329375
 H        -0.821555        -1.077019        -0.190543
 H        -0.433184        -0.586401         1.503508
 H        -0.719300         0.630382         0.050074
 H         1.624266         2.042040        -0.657206
 H         1.622722         1.827221         1.117943
 H         4.373786        -0.808012        -0.109237
 H         2.338966        -0.930995         1.968098
 H         2.772122        -2.894035        -0.125560
 H         1.013282        -2.473478        -0.136673
 H         1.935643         0.128853        -2.667507
