19
Iteration:  2581charge 0 multiplicity 1
 C        -0.215634        -0.043683         0.352116
 C         1.252008        -0.092382         0.253866
 C         1.924109         1.269879         0.311623
 O         3.301732         1.007005         0.158165
 C         3.332093        -0.365480        -0.027806
 C         2.311792        -1.079869         0.937341
 C         2.180886        -2.203553        -0.167777
 C         2.163529        -0.897511        -0.972441
 O         2.062556        -0.682437        -2.303060
 H        -0.754413         0.643123         1.066923
 H        -0.561289         0.416422        -0.549887
 H        -0.593534        -1.004745         0.460923
 H         1.590450         1.998732        -0.441316
 H         1.699462         1.818303         1.250370
 H         4.308816        -0.776532        -0.230437
 H         2.488034        -1.207470         2.006164
 H         2.997092        -2.849265        -0.349531
 H         1.223411        -2.714769        -0.207996
 H         2.440383        -1.413459        -2.850512
