19
Iteration:  3918
 C        -0.208261        -0.239449         0.464272
 C         1.281368        -0.183308         0.232430
 C         1.909512         1.244853         0.479326
 O         3.310679         1.005714         0.223220
 C         3.357927        -0.399637        -0.038436
 C         2.363016        -1.180376         0.816698
 C         2.059868        -2.201861        -0.356771
 C         2.117372        -0.772813        -1.034190
 O         2.128831        -0.513745        -2.338946
 H        -0.620074         0.634322         1.004194
 H        -0.836711        -0.164994        -0.472328
 H        -0.611495        -1.025568         1.160081
 H         1.454459         1.974751        -0.390515
 H         1.714073         1.782083         1.423674
 H         4.370125        -0.735020         0.113129
 H         2.526395        -1.336887         1.925284
 H         2.847292        -2.722685        -0.807628
 H         1.030634        -2.669656        -0.362311
 H         2.579724         0.329851        -2.429151
