19
Iteration:  2866charge 0 multiplicity 1
 C        -0.195757        -0.322524         0.340745
 C         1.327874        -0.067930         0.148156
 C         1.993520         1.311367         0.346927
 O         3.375252         1.024407         0.097896
 C         3.305784        -0.441108        -0.052036
 C         2.291299        -0.987461         0.919537
 C         1.967356        -2.117794        -0.013404
 C         2.143321        -0.844449        -0.928460
 O         2.050561        -0.645116        -2.375575
 H        -0.693148         0.029711         1.268762
 H        -0.720118        -0.034875        -0.543483
 H        -0.294028        -1.397951         0.325797
 H         1.729290         2.109566        -0.359358
 H         1.835923         1.674696         1.407617
 H         4.359544        -0.826800         0.062129
 H         2.553313        -1.056287         2.028702
 H         2.644600        -3.002478        -0.094421
 H         0.928194        -2.616670        -0.052449
 H         2.893169        -0.154410        -2.669122
