19
Iteration:  3055
 C        -0.162835        -0.165117         0.372906
 C         1.298941        -0.053542         0.184052
 C         1.869545         1.352150         0.202011
 O         3.382445         1.041377         0.126810
 C         3.323542        -0.354527        -0.011015
 C         2.240750        -1.146775         0.924934
 C         2.068860        -2.187947        -0.157277
 C         2.185003        -0.905636        -0.895049
 O         2.083511        -0.716440        -2.272076
 H        -0.573324         0.492293         1.166267
 H        -0.711148         0.016079        -0.466401
 H        -0.485396        -1.194578         0.662397
 H         1.519083         1.816957        -0.655758
 H         1.651839         1.719981         1.241688
 H         4.312082        -0.755504        -0.040470
 H         2.320794        -1.228927         1.924932
 H         3.010348        -2.854779        -0.314920
 H         1.108482        -2.666941        -0.288740
 H         2.561048         0.141351        -2.277630
