19
Iteration:  1865
 C        -0.077671        -0.159478         0.500336
 C         1.302386        -0.055706         0.100304
 C         1.955403         1.324527         0.262476
 O         3.370154         0.975458         0.160614
 C         3.295198        -0.463422        -0.002069
 C         2.135679        -0.988571         0.913153
 C         1.994407        -2.103478        -0.110122
 C         2.092322        -0.880123        -0.973985
 O         2.259552        -0.761490        -2.381071
 H        -0.210550        -0.183320         1.541263
 H        -0.871357         0.595990         0.051590
 H        -0.512670        -1.273216         0.259940
 H         1.681378         2.035336        -0.543648
 H         1.827466         1.703528         1.242066
 H         4.303723        -0.924188        -0.045388
 H         2.040571        -0.908186         2.120651
 H         2.828740        -2.844813        -0.390297
 H         0.918814        -2.495845        -0.119799
 H         1.610835        -0.068288        -2.800054
