19
Iteration:  4190
 C        -0.170624        -0.179839         0.120014
 C         1.346543        -0.105969         0.249298
 C         1.907436         1.217302         0.418198
 O         3.384940         1.100505         0.157617
 C         3.401742        -0.372318        -0.045926
 C         2.337807        -1.144771         0.950384
 C         2.195309        -2.198169        -0.133447
 C         2.163297        -0.870668        -0.886143
 O         1.809116        -0.629149        -2.280947
 H        -0.496610         0.524363        -0.596123
 H        -0.670810        -1.036524        -0.319045
 H        -0.619581        -0.106775         1.100187
 H         1.393168         1.766703        -0.439373
 H         1.622526         1.783134         1.390147
 H         4.448080        -0.659176        -0.122999
 H         2.444149        -1.378091         2.013273
 H         3.049412        -2.831031        -0.301362
 H         1.174855        -2.675191        -0.270671
 H         2.422145         0.074627        -2.468307
