19
Iteration:  2186charge 0 multiplicity 1
 C        -0.195371        -0.247452         0.273929
 C         1.380326        -0.133308         0.163041
 C         1.959238         1.277370         0.178938
 O         3.463048         1.032512         0.103837
 C         3.393928        -0.427605         0.070316
 C         2.260982        -1.068546         1.002793
 C         1.975821        -2.236964        -0.016803
 C         2.151962        -0.832799        -0.955321
 O         1.909654        -0.492350        -2.323739
 H        -0.734191         0.494696         0.991939
 H        -0.782961        -0.098858        -0.613021
 H        -0.366175        -1.229593         0.803999
 H         1.499859         1.980549        -0.595035
 H         2.072144         1.582663         1.264796
 H         4.501862        -0.806722         0.032509
 H         2.264022        -1.215646         2.032385
 H         2.734618        -3.016999        -0.118563
 H         1.002587        -2.652167        -0.076170
 H         2.773999        -0.490869        -2.734638
