19
Iteration:  2342charge 0 multiplicity 1
 C        -0.193131        -0.179955         0.223668
 C         1.343822        -0.118512         0.193667
 C         1.920149         1.339374         0.262695
 O         3.377062         1.064129        -0.016070
 C         3.344071        -0.465634         0.046256
 C         2.266060        -1.063166         0.969027
 C         2.092732        -2.291167        -0.068333
 C         2.183849        -0.909617        -0.871755
 O         1.946957        -0.571691        -2.243509
 H        -0.564370         0.388278         1.185429
 H        -0.469596         0.216540        -0.709556
 H        -0.672694        -1.096422         0.414165
 H         1.683917         2.088793        -0.472747
 H         2.113276         1.708517         1.267551
 H         4.354301        -0.885864         0.086028
 H         2.379852        -1.259830         2.096235
 H         2.824378        -3.057152        -0.327038
 H         1.037839        -2.670779         0.090681
 H         2.686190         0.103376        -2.469512
