19
Iteration:  3149
 C        -0.261355        -0.061035         0.174150
 C         1.275530        -0.194607         0.175291
 C         1.929642         1.238720         0.305792
 O         3.302132         1.058871         0.145983
 C         3.356527        -0.356103        -0.066810
 C         2.413897        -1.080496         0.936392
 C         2.191417        -2.219893        -0.029143
 C         2.139836        -0.935279        -0.908438
 O         1.958692        -0.671140        -2.229287
 H        -0.589468         0.157448         1.199459
 H        -0.483822         0.820833        -0.510964
 H        -0.850446        -0.931170        -0.224844
 H         1.587437         1.885189        -0.512431
 H         1.861545         1.617959         1.281029
 H         4.338790        -0.752001        -0.135269
 H         2.501922        -1.016206         2.105779
 H         3.066176        -2.805026        -0.263049
 H         1.338129        -2.785681        -0.044640
 H         2.558037         0.053070        -2.530115
