19
Iteration:  4764
 C        -0.215660        -0.051811         0.232430
 C         1.294616        -0.070240         0.202061
 C         1.912946         1.339699         0.131074
 O         3.283260         1.126164        -0.003214
 C         3.371484        -0.382213         0.022225
 C         2.340587        -1.005178         1.049277
 C         2.182691        -2.209009         0.006680
 C         2.185167        -0.918300        -0.835833
 O         1.965780        -0.975365        -2.250633
 H        -0.652669        -1.019210        -0.039761
 H        -0.553736         0.288579         1.196979
 H        -0.481809         0.688188        -0.478833
 H         1.362382         1.672913        -0.838008
 H         1.644649         2.006341         0.991424
 H         4.341864        -0.663554        -0.100027
 H         2.522346        -1.073983         2.181741
 H         3.186467        -2.671379        -0.052492
 H         1.261839        -2.698280         0.128247
 H         2.570194        -0.237830        -2.546859
