19
Iteration:  4588charge 0 multiplicity 1
 C        -0.102574        -0.388665         0.185251
 C         1.350531        -0.048923         0.139137
 C         1.937647         1.406098         0.214367
 O         3.351083         1.049405         0.133253
 C         3.366697        -0.408570        -0.060320
 C         2.350784        -0.933751         0.988294
 C         1.996541        -2.095939         0.018101
 C         2.139170        -0.839147        -0.889001
 O         1.931141        -0.790084        -2.247774
 H        -0.645075         0.659583         0.652503
 H        -0.663294        -0.541080        -0.790046
 H        -0.340536        -0.995183         1.135676
 H         1.752953         2.202223        -0.613174
 H         1.766533         1.847741         1.191835
 H         4.365125        -0.677432        -0.173518
 H         2.581436        -0.891536         2.130209
 H         2.820763        -2.850854        -0.153475
 H         1.046783        -2.563006         0.107729
 H         2.383703        -1.480138        -2.729679
