19
Iteration:  3368charge 0 multiplicity 1
 C        -0.282326        -0.097090         0.309893
 C         1.263287        -0.151457         0.155513
 C         1.923785         1.293263         0.245728
 O         3.324761         1.016107         0.160184
 C         3.307515        -0.378915        -0.081643
 C         2.373028        -1.056704         0.910482
 C         2.199967        -2.237999        -0.084424
 C         2.172841        -0.920555        -0.945979
 O         1.995841        -0.648327        -2.227705
 H        -0.644974        -0.513588         1.251417
 H        -0.555016         0.997642         0.279135
 H        -0.726712        -0.603269        -0.582058
 H         1.635221         2.025426        -0.435820
 H         1.736571         1.682212         1.185095
 H         4.376039        -0.618896        -0.053235
 H         2.350737        -1.094040         2.024150
 H         3.147794        -2.912178        -0.127198
 H         1.296397        -2.760754         0.061324
 H         2.804769        -0.347315        -2.562949
