19
Iteration:  4724
 C        -0.237328        -0.220237         0.063757
 C         1.330185        -0.025032         0.203536
 C         1.953361         1.347666         0.320680
 O         3.381324         1.100956         0.018104
 C         3.434824        -0.349360        -0.004979
 C         2.363779        -0.900101         1.015855
 C         2.108012        -2.103334         0.109820
 C         2.159294        -0.948450        -0.919446
 O         1.916905        -0.975716        -2.266042
 H        -0.412944        -1.261612         0.603630
 H        -0.689368         0.688476         0.570366
 H        -0.822235        -0.349705        -0.910525
 H         1.611317         1.930845        -0.532267
 H         1.755903         1.926987         1.269155
 H         4.482256        -0.887857        -0.077303
 H         2.465176        -0.912458         2.047122
 H         2.934988        -2.839153        -0.003365
 H         1.077614        -2.640569         0.139408
 H         1.537833        -0.127675        -2.534884
