19
Iteration:  2481charge 0 multiplicity 1
 C        -0.195603        -0.054111         0.200404
 C         1.349603        -0.117550         0.182467
 C         1.873370         1.312288         0.262221
 O         3.299695         1.022626         0.047565
 C         3.410294        -0.373346         0.016884
 C         2.401161        -1.150555         1.005138
 C         2.084154        -2.229145        -0.082537
 C         2.226509        -0.864281        -0.882876
 O         1.943492        -0.679498        -2.209598
 H        -0.725456         0.025729         1.137799
 H        -0.466821         0.788566        -0.466901
 H        -0.704813        -0.920604        -0.263359
 H         1.447496         1.927580        -0.535514
 H         1.700621         1.582508         1.280488
 H         4.427449        -0.878154        -0.284676
 H         2.356714        -1.335104         2.110176
 H         2.769520        -3.065889        -0.114067
 H         1.036829        -2.703161        -0.076072
 H         2.527516        -0.041892        -2.537237
