19
Iteration:  2211
 C        -0.191572        -0.258980         0.299555
 C         1.349481        -0.013732         0.266563
 C         2.003817         1.300955         0.230381
 O         3.334680         0.931583         0.028484
 C         3.289841        -0.489080        -0.056064
 C         2.292830        -1.008402         0.948509
 C         1.998413        -2.130320        -0.163863
 C         2.129394        -0.858941        -0.882978
 O         2.074184        -0.602305        -2.179824
 H        -0.814434         0.256592         1.201858
 H        -0.775495         0.105623        -0.548506
 H        -0.319343        -1.302996         0.488864
 H         1.545455         1.891270        -0.696676
 H         1.957945         1.817243         1.213814
 H         4.375649        -0.880919        -0.001830
 H         2.460219        -1.000909         2.106957
 H         2.813132        -2.858245        -0.386788
 H         0.947379        -2.642044        -0.167703
 H         2.852823        -0.003045        -2.418905
