19
Iteration:   145charge 0 multiplicity 1
 C        -0.182037         0.136302         0.434247
 C         1.294734         0.049917         0.097288
 C         2.128212         1.331106         0.171588
 O         3.453019         0.733490         0.039870
 C         3.315117        -0.634642        -0.006014
 C         2.169399        -1.007085         0.941864
 C         1.865768        -2.185180        -0.046583
 C         2.128903        -0.923152        -0.937368
 O         2.055995        -0.595958        -2.245595
 H        -0.182282         0.179612         1.550253
 H        -0.588868         1.185759         0.110172
 H        -0.836808        -0.620117         0.121998
 H         2.030835         2.136946        -0.457392
 H         2.006611         1.695589         1.189499
 H         4.300912        -1.174112        -0.308914
 H         2.137544        -0.961749         2.021665
 H         2.648403        -2.952541        -0.002116
 H         0.936682        -2.714721        -0.073967
 H         2.813123        -1.038726        -2.650776
