19
Iteration:   664
 C        -0.239951         0.108345         0.417882
 C         1.364393        -0.051090         0.133455
 C         2.148562         1.235109         0.340331
 O         3.482633         0.879488         0.103069
 C         3.340164        -0.496843         0.037683
 C         2.211871        -1.054312         0.918475
 C         1.916193        -2.174528        -0.028312
 C         2.087859        -0.873746        -0.920234
 O         2.050155        -0.658871        -2.481485
 H        -0.457413         1.166828         0.822313
 H        -0.790849         0.109146        -0.534628
 H        -0.622254        -0.829174         0.971993
 H         1.730029         2.032374        -0.335644
 H         2.223012         1.559346         1.420632
 H         4.416081        -0.756933        -0.103098
 H         2.205168        -1.110041         2.073124
 H         2.725773        -2.915355        -0.097833
 H         0.920640        -2.735474        -0.048545
 H         1.239803        -1.217881        -2.837331
