19
Iteration:  1360
 C        -0.137112         0.010346         0.506119
 C         1.331675        -0.060848         0.141590
 C         2.073668         1.288096         0.221332
 O         3.419072         0.929905         0.090352
 C         3.256667        -0.479736         0.005916
 C         2.186067        -1.049048         0.951422
 C         1.873341        -2.162993        -0.072721
 C         2.113747        -0.888956        -0.926711
 O         2.180369        -0.760216        -2.398344
 H        -0.255356        -0.121395         1.509855
 H        -0.438564         1.046340         0.281049
 H        -0.776041        -0.501808        -0.206259
 H         1.677610         1.771524        -0.674752
 H         1.785247         1.761146         1.136790
 H         4.305328        -0.957782        -0.035277
 H         2.308945        -1.133660         2.045397
 H         2.747598        -2.767220        -0.277340
 H         0.925053        -2.712989        -0.134787
 H         1.813613         0.156962        -2.569621
