19
Iteration:  4357charge 0 multiplicity 1
 C        -0.167804        -0.377238         0.127876
 C         1.401305        -0.057477         0.245355
 C         1.987417         1.339627         0.369150
 O         3.339932         1.034216         0.163991
 C         3.330665        -0.390843        -0.075906
 C         2.356683        -1.009340         0.979795
 C         2.045633        -2.066594        -0.086914
 C         2.180370        -0.852356        -0.927376
 O         1.866167        -0.727914        -2.277014
 H        -0.623515        -0.824209         1.115007
 H        -0.717795         0.589883         0.240580
 H        -0.456130        -0.935948        -0.825204
 H         1.716193         1.976523        -0.491973
 H         1.781417         1.837847         1.379067
 H         4.385284        -0.743626        -0.121363
 H         2.496895        -1.112515         2.005465
 H         2.868526        -2.802846        -0.233401
 H         1.105682        -2.545210        -0.015222
 H         2.582553        -0.220283        -2.749444
