19
Iteration:  2843
 C        -0.139576        -0.222003         0.204841
 C         1.368381        -0.097495         0.170258
 C         1.935478         1.367064         0.349922
 O         3.370650         1.042345         0.167654
 C         3.371877        -0.423236        -0.022126
 C         2.265883        -1.077554         0.927291
 C         2.059269        -2.165782        -0.060453
 C         2.183742        -0.873094        -0.924402
 O         1.889095        -0.663778        -2.303575
 H        -0.491581         0.364518         1.070007
 H        -0.516751         0.090553        -0.753624
 H        -0.397078        -1.217692         0.363165
 H         1.606078         2.117305        -0.373930
 H         1.835795         1.764424         1.397798
 H         4.448258        -0.610994        -0.221522
 H         2.288048        -1.109903         2.081468
 H         2.822723        -2.932454        -0.096976
 H         1.108709        -2.805806        -0.087251
 H         2.646459        -0.659426        -2.871271
