19
Iteration:  4373charge 0 multiplicity 1
 C        -0.166934        -0.251596         0.109386
 C         1.292778        -0.096686         0.191766
 C         1.921154         1.322213         0.342585
 O         3.440051         1.053282         0.187664
 C         3.390794        -0.331782        -0.014008
 C         2.362219        -1.016974         0.932133
 C         2.154234        -2.202618        -0.082093
 C         2.121170        -0.779609        -0.877422
 O         1.810366        -0.797483        -2.253556
 H        -0.528066        -1.003640         0.716064
 H        -0.731938         0.688208         0.334103
 H        -0.223236        -0.644059        -0.922805
 H         1.518082         2.068471        -0.353339
 H         1.843438         1.730714         1.373924
 H         4.335895        -0.765767        -0.312090
 H         2.455711        -1.110535         2.110638
 H         3.007153        -2.924124        -0.357457
 H         1.107389        -2.670064        -0.008284
 H         2.352531        -0.029185        -2.672269
