19
Iteration:  1478
 C        -0.145397        -0.064021         0.355475
 C         1.335723        -0.019692         0.314777
 C         1.986816         1.317786         0.172901
 O         3.391996         0.956092         0.171075
 C         3.289257        -0.518755        -0.046252
 C         2.284273        -1.048948         0.967740
 C         1.894871        -2.208063        -0.176531
 C         2.169231        -0.906648        -0.970318
 O         2.132769        -0.575142        -2.258240
 H        -0.349234         0.964844         0.677070
 H        -0.619128        -0.401167        -0.643032
 H        -0.509631        -0.814430         1.038446
 H         1.700541         1.758073        -0.811719
 H         1.951485         2.055373         1.041332
 H         4.292766        -0.995407        -0.205781
 H         2.386537        -1.317965         2.042659
 H         2.580454        -3.110272        -0.401822
 H         0.824937        -2.515418         0.052644
 H         1.629218        -1.182361        -2.727702
