19
Iteration:  4402
 C        -0.186039        -0.100935         0.186788
 C         1.289773        -0.141641         0.186814
 C         1.878946         1.317660         0.314260
 O         3.324993         1.033460         0.148694
 C         3.386485        -0.367328         0.023406
 C         2.354365        -1.019602         0.966854
 C         2.220228        -2.197850        -0.111568
 C         2.232330        -0.840010        -0.905351
 O         1.883864        -0.826672        -2.295354
 H        -0.671650        -1.052672         0.453926
 H        -0.536994         0.539928         1.026527
 H        -0.383008         0.162670        -0.876960
 H         1.475202         1.978996        -0.466167
 H         1.871811         1.795596         1.341954
 H         4.363751        -0.706740        -0.195300
 H         2.452353        -1.221719         2.054273
 H         3.000974        -2.971422        -0.319085
 H         1.236210        -2.617534        -0.040261
 H         1.788365         0.123393        -2.489684
