19
Iteration:  4125charge 0 multiplicity 1
 C        -0.195656        -0.377922         0.530000
 C         1.265432        -0.075616         0.188047
 C         1.907805         1.336246         0.392441
 O         3.310010         1.002362         0.115368
 C         3.340661        -0.405644        -0.011673
 C         2.227303        -1.024174         0.870935
 C         1.985442        -2.086269        -0.259143
 C         2.215387        -0.801434        -0.993810
 O         2.213249        -0.677330        -2.380874
 H        -0.764899        -0.850310        -0.277198
 H        -0.090902        -1.012292         1.482021
 H        -0.653114         0.578638         0.985385
 H         1.733682         1.974956        -0.419710
 H         1.665474         1.860729         1.361616
 H         4.221545        -1.047474        -0.060782
 H         2.334886        -1.167757         1.970626
 H         2.745499        -2.917453        -0.396672
 H         0.866716        -2.483828        -0.411577
 H         2.668024         0.232450        -2.520469
