19
Iteration:  4283charge 0 multiplicity 1
 C        -0.243896        -0.154411         0.539912
 C         1.244672        -0.191632         0.213579
 C         1.904483         1.286541         0.225507
 O         3.289361         1.056526         0.138671
 C         3.338418        -0.356926        -0.003832
 C         2.272007        -1.119598         0.899180
 C         2.134971        -2.214653        -0.214651
 C         2.096064        -0.882246        -0.956916
 O         2.186229        -0.653939        -2.349975
 H        -0.376182         0.679846         1.017251
 H        -0.857885         0.219083        -0.281967
 H        -0.666003        -1.007545         1.064003
 H         1.630305         1.909853        -0.599120
 H         1.861913         1.908079         1.129911
 H         4.348265        -0.720451        -0.093058
 H         2.567614        -1.334909         1.991976
 H         3.113208        -2.852648        -0.309545
 H         1.194846        -2.720747        -0.408888
 H         2.663375         0.216787        -2.490634
