19
Iteration:  3639charge 0 multiplicity 1
 C        -0.163285        -0.327436         0.286344
 C         1.332527        -0.044333         0.146719
 C         2.000789         1.307023         0.435959
 O         3.354715         0.963813         0.226483
 C         3.359384        -0.410249        -0.010408
 C         2.298245        -1.060747         0.904545
 C         2.032194        -2.076371        -0.165783
 C         2.203015        -0.719942        -0.954578
 O         1.952064        -0.722114        -2.352784
 H        -0.735944        -0.359457        -0.699943
 H        -0.149016        -1.483059         0.748521
 H        -0.704253         0.440626         0.865644
 H         1.719790         2.089879        -0.234946
 H         1.654401         1.652992         1.445518
 H         4.388886        -0.805076        -0.226674
 H         2.394053        -1.173861         1.997771
 H         2.825722        -2.881567        -0.380129
 H         0.993274        -2.401711        -0.366716
 H         2.004889         0.187222        -2.763717
