19
Iteration:  1145charge 0 multiplicity 1
 C        -0.154497         0.023380         0.577700
 C         1.318245         0.028261         0.269034
 C         2.060290         1.347328         0.227683
 O         3.446158         0.867616         0.138683
 C         3.268535        -0.570032        -0.070043
 C         2.181329        -1.090787         0.916976
 C         1.844740        -2.130161        -0.185916
 C         2.061370        -0.870187        -0.961294
 O         2.279988        -0.653441        -2.352291
 H        -0.718940         0.868285         0.033317
 H        -0.558321        -0.800321         0.029196
 H        -0.627674        -0.148707         1.580855
 H         1.895327         1.891897        -0.692970
 H         2.019813         2.037361         1.108119
 H         4.277244        -1.049432        -0.372630
 H         2.303950        -1.341829         1.976661
 H         2.531131        -2.982154        -0.248879
 H         0.818418        -2.515223        -0.261907
 H         1.547857        -1.089422        -2.945656
