19
Iteration:  4723
 C        -0.238740        -0.226428         0.061788
 C         1.326393        -0.026219         0.210818
 C         1.955172         1.359732         0.321250
 O         3.388749         1.092066         0.016309
 C         3.435594        -0.344935        -0.003089
 C         2.366068        -0.902187         1.011871
 C         2.103029        -2.109674         0.114221
 C         2.159396        -0.944078        -0.927591
 O         1.918057        -0.974503        -2.265589
 H        -0.384348        -1.256790         0.633545
 H        -0.704844         0.672208         0.568486
 H        -0.809477        -0.375192        -0.903515
 H         1.602694         1.957479        -0.557746
 H         1.745946         1.913169         1.275640
 H         4.450944        -0.836690        -0.067283
 H         2.434544        -0.938615         2.065350
 H         2.907636        -2.790188        -0.018017
 H         1.085251        -2.592029         0.135916
 H         1.538191        -0.164488        -2.540282
