19
Iteration:  2215
 C        -0.233103        -0.218649         0.328213
 C         1.339412        -0.042353         0.292673
 C         1.974733         1.277746         0.218494
 O         3.348079         0.932428         0.038983
 C         3.316823        -0.490007        -0.055276
 C         2.312768        -0.972887         0.960718
 C         1.987374        -2.149146        -0.166475
 C         2.115579        -0.828074        -0.891984
 O         2.099168        -0.627610        -2.201773
 H        -0.731608         0.183674         1.139360
 H        -0.804019         0.077262        -0.605774
 H        -0.358127        -1.345263         0.310826
 H         1.538873         1.916389        -0.518329
 H         2.050536         1.890210         1.117731
 H         4.277082        -0.848065        -0.094465
 H         2.546898        -1.055240         2.031935
 H         2.799722        -2.844693        -0.422512
 H         1.021449        -2.625855        -0.200011
 H         2.791777         0.003774        -2.313322
