19
Iteration:  1057charge 0 multiplicity 1
 C        -0.179141        -0.102843         0.006343
 C         1.357364        -0.053394         0.192492
 C         2.194178         1.361434         0.391607
 O         3.512458         0.877088         0.171544
 C         3.447495        -0.533189        -0.019297
 C         2.329699        -1.149669         0.934803
 C         1.852628        -2.170580        -0.088794
 C         2.086790        -0.818379        -0.876139
 O         1.724073        -0.544469        -2.177616
 H        -0.339260        -0.392494        -1.083160
 H        -0.678070        -0.712324         0.642968
 H        -0.502493         0.943476         0.266497
 H         1.951948         2.020329        -0.421727
 H         2.016761         1.794885         1.409272
 H         4.417100        -1.086584        -0.045259
 H         2.520134        -1.320899         1.974555
 H         2.410239        -3.080032        -0.353879
 H         0.783656        -2.385894        -0.046089
 H         2.615297        -0.354198        -2.653428
