19
Iteration:   926charge 0 multiplicity 1
 C        -0.137831        -0.012384         0.188828
 C         1.341941        -0.006092         0.285561
 C         2.132651         1.336027         0.357582
 O         3.462599         0.833264         0.167689
 C         3.311515        -0.505270        -0.040203
 C         2.252489        -1.076654         0.957502
 C         1.962545        -2.123558        -0.151722
 C         2.121258        -0.834014        -0.937929
 O         1.885929        -0.740385        -2.302829
 H        -0.760336         0.949298         0.057366
 H        -0.462833        -0.643849        -0.523949
 H        -0.579564        -0.380641         1.162857
 H         1.767576         2.063593        -0.447565
 H         2.141449         1.826781         1.359536
 H         4.200132        -1.078324        -0.189675
 H         2.289685        -1.119092         2.035069
 H         2.849115        -2.744341        -0.244670
 H         1.042991        -2.668207        -0.380190
 H         2.173920         0.110968        -2.503550
