19
Iteration:   284
 C        -0.137853         0.086511         0.411877
 C         1.382505         0.027243         0.215044
 C         2.071818         1.284738         0.236011
 O         3.512374         0.797588         0.111433
 C         3.323175        -0.673318        -0.026977
 C         2.246961        -1.011371         0.937217
 C         1.683744        -2.081355         0.044198
 C         2.073282        -0.879695        -0.960691
 O         2.142130        -0.611926        -2.419996
 H        -0.425765         0.840259         1.162092
 H        -0.524577         0.350515        -0.562346
 H        -0.676296        -0.817031         0.644199
 H         1.901530         1.941200        -0.717130
 H         1.938095         1.855022         1.178561
 H         4.185047        -1.272630         0.008180
 H         2.426881        -1.030040         1.958604
 H         2.230767        -3.044776        -0.026461
 H         0.633556        -2.263810         0.009755
 H         2.178654        -1.413812        -2.925595
