19
Iteration:  2738charge 0 multiplicity 1
 C        -0.101733        -0.298747         0.401337
 C         1.280437        -0.007173         0.294608
 C         1.936596         1.342343         0.341663
 O         3.352559         1.060363         0.081628
 C         3.284031        -0.431663        -0.099425
 C         2.241719        -1.007068         0.923412
 C         1.964738        -2.176752        -0.158467
 C         2.065495        -0.847332        -0.938781
 O         2.296009        -0.733860        -2.315599
 H        -0.641357        -0.040058         1.394507
 H        -0.613415         0.369432        -0.295915
 H        -0.533396        -1.363239         0.167926
 H         1.514324         2.077932        -0.458343
 H         1.833323         2.036524         1.380287
 H         4.371926        -0.737335        -0.242595
 H         2.233266        -1.180807         2.019233
 H         2.918757        -2.722013        -0.320609
 H         0.996270        -2.655321        -0.126818
 H         1.552938        -0.741114        -2.871612
