19
Iteration:  4922charge 0 multiplicity 1
 C        -0.080069        -0.352392         0.145941
 C         1.324715        -0.009751         0.191929
 C         1.962419         1.465980         0.185735
 O         3.372661         1.069195         0.105350
 C         3.316366        -0.319192        -0.008592
 C         2.342216        -0.931451         1.016298
 C         2.041157        -2.076233         0.001970
 C         2.176331        -0.840480        -0.835741
 O         1.894998        -1.044993        -2.258889
 H        -0.244673        -1.199367         0.763965
 H        -0.701462         0.436316         0.637806
 H        -0.399152        -0.327402        -0.919851
 H         1.715870         2.098170        -0.761426
 H         1.802140         1.983227         1.158340
 H         4.285162        -0.918733        -0.119006
 H         2.401652        -1.053494         2.084212
 H         2.842519        -2.775009        -0.022534
 H         1.050826        -2.602699         0.041983
 H         2.018397        -0.122503        -2.698096
