19
Iteration:  2194
 C        -0.122816        -0.277932         0.315368
 C         1.359847        -0.113849         0.137296
 C         1.966906         1.352062         0.209130
 O         3.421469         0.995733         0.025896
 C         3.351673        -0.448131         0.070484
 C         2.219392        -1.093259         0.997581
 C         1.969649        -2.216868        -0.042649
 C         2.153560        -0.815317        -0.903447
 O         1.953822        -0.510937        -2.273626
 H        -0.435537         0.410096         0.987000
 H        -0.664330        -0.209454        -0.666136
 H        -0.377686        -1.352997         0.563081
 H         1.713326         2.098112        -0.472535
 H         1.922023         1.948683         1.155563
 H         4.282963        -0.844680        -0.152963
 H         2.208001        -1.402021         2.022459
 H         2.752032        -2.965904        -0.121859
 H         1.008851        -2.654182        -0.080077
 H         2.856719        -0.269156        -2.601435
