19
Iteration:  1740charge 0 multiplicity 1
 C        -0.152214        -0.204330         0.231526
 C         1.365124        -0.069597         0.209968
 C         2.054636         1.324602         0.203322
 O         3.422848         1.009640         0.244374
 C         3.370729        -0.514867        -0.067293
 C         2.316178        -1.058931         0.951248
 C         1.951236        -2.127213        -0.086612
 C         2.111948        -0.862132        -0.903436
 O         1.923127        -0.685859        -2.282441
 H        -0.829989         0.605990         0.805797
 H        -0.601480        -0.096358        -0.787490
 H        -0.522282        -1.165874         0.602524
 H         1.759222         2.044128        -0.629634
 H         1.766246         1.947126         1.085680
 H         4.391702        -0.963578        -0.005522
 H         2.414549        -1.051543         2.011068
 H         2.624874        -2.937650        -0.316685
 H         0.938991        -2.489603        -0.080444
 H         2.366780         0.220259        -2.460351
