19
Iteration:  4026
 C        -0.164910        -0.302530         0.103361
 C         1.351176        -0.121504         0.206191
 C         1.953946         1.242723         0.446375
 O         3.353218         0.976542         0.270129
 C         3.387572        -0.356059         0.020508
 C         2.407569        -1.122277         0.907809
 C         2.140093        -2.159812        -0.231773
 C         2.191413        -0.757528        -0.937454
 O         1.779023        -0.560646        -2.248503
 H        -0.392123        -1.083747         0.823697
 H        -0.535914         0.726559         0.284816
 H        -0.481118        -0.415197        -0.955346
 H         1.617626         1.709954        -0.426611
 H         1.733799         1.855360         1.258583
 H         4.351906        -0.642240        -0.313771
 H         2.569975        -1.447073         1.991986
 H         2.912546        -2.957356        -0.341730
 H         1.040217        -2.689512        -0.150301
 H         1.914614         0.362777        -2.611429
