19
Iteration:   642charge 0 multiplicity 1
 C        -0.154578        -0.005063         0.507370
 C         1.315392         0.034257         0.126906
 C         2.082560         1.338235         0.210382
 O         3.501696         0.829656         0.072347
 C         3.229186        -0.579481        -0.025634
 C         2.120921        -1.021120         0.885644
 C         1.912127        -2.143368        -0.114827
 C         2.096388        -0.878708        -0.923924
 O         2.117531        -0.610879        -2.250164
 H        -0.447495         0.982263         1.025234
 H        -0.831945         0.077965        -0.334778
 H        -0.383765        -0.994609         1.076220
 H         2.086102         2.063737        -0.649290
 H         2.216080         1.882756         1.210850
 H         4.190837        -1.123520        -0.185201
 H         2.416417        -1.200502         1.981024
 H         2.664677        -2.933509        -0.240013
 H         0.916204        -2.706781        -0.140802
 H         2.096890        -1.333196        -2.815652
