19
Iteration:  4721
 C        -0.240193        -0.240086         0.063928
 C         1.320136        -0.030000         0.219563
 C         1.958087         1.382316         0.316748
 O         3.401748         1.075369         0.014512
 C         3.432424        -0.337399        -0.000295
 C         2.368914        -0.907243         1.001440
 C         2.090158        -2.118933         0.119188
 C         2.161473        -0.932120        -0.934694
 O         1.921786        -0.976246        -2.264741
 H        -0.346135        -1.192712         0.670290
 H        -0.735548         0.612342         0.563778
 H        -0.750074        -0.413938        -0.886206
 H         1.590576         2.010203        -0.582512
 H         1.741788         1.877306         1.277166
 H         4.386777        -0.725938        -0.048488
 H         2.384952        -0.984664         2.126510
 H         2.888203        -2.741321        -0.043794
 H         1.114254        -2.505756         0.138141
 H         1.515854        -0.176993        -2.567320
