19
Iteration:  3309charge 0 multiplicity 1
 C        -0.240666        -0.399061         0.215895
 C         1.326327        -0.046477         0.168312
 C         1.966058         1.379567         0.325496
 O         3.471039         1.068847         0.227235
 C         3.347452        -0.380644        -0.098537
 C         2.346385        -1.018933         0.942489
 C         2.008614        -2.169094        -0.071831
 C         2.146494        -0.850455        -0.936170
 O         1.956785        -0.710339        -2.277708
 H        -0.665503        -0.319153         1.284896
 H        -0.835919         0.438773        -0.429161
 H        -0.373585        -1.344283        -0.297044
 H         1.690265         2.103086        -0.486667
 H         1.840707         1.651662         1.271681
 H         4.334836        -0.875739        -0.310292
 H         2.396479        -0.981698         2.073388
 H         2.793404        -2.909654        -0.034987
 H         0.908702        -2.634329         0.025069
 H         2.313874         0.106837        -2.757624
