19
Iteration:  4519
 C        -0.203542        -0.148325         0.250166
 C         1.344281        -0.151133         0.174555
 C         1.916469         1.323458         0.198296
 O         3.299106         1.062868         0.077705
 C         3.372493        -0.335751        -0.042855
 C         2.326220        -1.049080         1.017931
 C         2.169208        -2.188855         0.031397
 C         2.180591        -0.923448        -0.877351
 O         1.914443        -0.687121        -2.261492
 H        -0.483637         0.485808        -0.705787
 H        -0.805779        -1.052009         0.058017
 H        -0.545339         0.423539         1.147494
 H         1.468144         1.904509        -0.688840
 H         1.682817         1.837380         1.164538
 H         4.391880        -0.866433        -0.158780
 H         2.553158        -1.162879         2.011372
 H         3.137535        -2.764126        -0.179676
 H         1.301684        -2.945820         0.039368
 H         2.660597        -1.040688        -2.692761
