19
Iteration:  1454charge 0 multiplicity 1
 C        -0.204956        -0.063213         0.189507
 C         1.305516        -0.052129         0.240052
 C         2.017728         1.283017         0.233711
 O         3.483817         0.927932         0.071056
 C         3.371866        -0.450246        -0.013487
 C         2.317207        -1.203148         1.055344
 C         1.979827        -2.146546        -0.104593
 C         2.112452        -0.794380        -0.865073
 O         1.947945        -0.559730        -2.195079
 H        -0.539969         0.987688         0.502832
 H        -0.365879        -0.241162        -0.854393
 H        -0.682551        -0.911540         0.595760
 H         1.802056         1.831529        -0.706507
 H         2.035731         1.905478         1.169676
 H         4.247686        -0.941277        -0.215604
 H         2.374308        -1.401676         2.122089
 H         2.687512        -2.887933        -0.518046
 H         0.958870        -2.556653        -0.157177
 H         1.835177        -1.399343        -2.693607
