19
Iteration:   236charge 0 multiplicity 1
 C        -0.118781         0.211750         0.156083
 C         1.365521         0.018184         0.171998
 C         2.229806         1.284957         0.361507
 O         3.540098         0.832368         0.100872
 C         3.295173        -0.530960         0.108450
 C         2.148707        -1.083721         0.953524
 C         1.977586        -2.131803        -0.172316
 C         2.133610        -0.845981        -0.883047
 O         1.729366        -0.769382        -2.294618
 H        -0.309159         1.076997         0.798247
 H        -0.536813         0.357876        -0.851941
 H        -0.741588        -0.654815         0.613990
 H         1.972840         2.112775        -0.233019
 H         2.136449         1.550529         1.398158
 H         4.251220        -1.111587         0.236636
 H         2.517561        -1.199067         2.065702
 H         2.808509        -2.931366        -0.154591
 H         0.974800        -2.706656        -0.150662
 H         2.282630        -1.424328        -2.902918
