19
Iteration:  4894charge 0 multiplicity 1
 C        -0.219187        -0.129894         0.096408
 C         1.313893        -0.105581         0.125706
 C         1.935696         1.330530         0.233364
 O         3.358388         1.124597         0.100629
 C         3.396540        -0.284842         0.035941
 C         2.399079        -0.906674         0.979639
 C         2.182719        -2.122408         0.040223
 C         2.216043        -0.917109        -0.845915
 O         1.830162        -1.063703        -2.265292
 H        -0.687302        -1.149421         0.208905
 H        -0.488317         0.433321         1.006134
 H        -0.628929         0.374030        -0.785273
 H         1.662942         1.989763        -0.550326
 H         1.755335         1.816069         1.195223
 H         4.288835        -0.796763        -0.057189
 H         2.276556        -0.931675         2.142278
 H         2.902453        -3.033343         0.043640
 H         1.321916        -2.775641         0.154993
 H         1.935610        -0.126853        -2.633027
