19
Iteration:   903
 C        -0.168715        -0.066794         0.067966
 C         1.361880        -0.050093         0.135336
 C         2.154816         1.290093         0.240828
 O         3.583893         0.916148         0.124329
 C         3.413169        -0.510130         0.114864
 C         2.237146        -1.114847         0.970202
 C         1.997475        -2.221176        -0.047725
 C         2.073097        -0.855349        -0.928014
 O         1.737069        -0.578416        -2.212282
 H        -0.640678         0.944241         0.313773
 H        -0.561341        -0.302767        -0.854719
 H        -0.728445        -0.677914         0.879944
 H         1.845636         2.107376        -0.464030
 H         1.966528         1.560160         1.331879
 H         4.306815        -1.162296         0.099703
 H         2.267407        -1.160259         2.117598
 H         2.809749        -2.891376        -0.241443
 H         1.035755        -2.788336        -0.032423
 H         1.793750         0.451222        -2.309056
