19
Iteration:  3647charge 0 multiplicity 1
 C        -0.110348        -0.358281         0.229854
 C         1.311534        -0.001032         0.186526
 C         2.008959         1.282319         0.462144
 O         3.378568         0.996932         0.277166
 C         3.331124        -0.378358        -0.064520
 C         2.335416        -1.051672         0.909259
 C         2.008171        -2.080881        -0.215692
 C         2.165678        -0.772228        -0.997247
 O         1.945569        -0.744036        -2.334499
 H        -0.599592        -0.544849        -0.762296
 H        -0.354119        -1.268773         0.819818
 H        -0.737200         0.381950         0.728326
 H         1.707824         2.168115        -0.186122
 H         1.924051         1.664340         1.440450
 H         4.286856        -0.743309        -0.148903
 H         2.398339        -1.024742         2.036549
 H         2.735002        -2.890582        -0.245557
 H         0.918808        -2.534285        -0.146483
 H         1.983287         0.214992        -2.666615
