19
Iteration:  2703
 C        -0.263231        -0.086853         0.467218
 C         1.275448        -0.154322         0.138304
 C         1.863935         1.274606         0.255415
 O         3.329268         1.092091         0.138939
 C         3.433921        -0.346397        -0.027916
 C         2.219952        -1.079060         0.868852
 C         2.104222        -2.253255        -0.131869
 C         2.195098        -0.953747        -0.949195
 O         2.230031        -0.662570        -2.328900
 H        -0.313452         0.382093         1.552027
 H        -0.736170         0.700703        -0.177005
 H        -0.940870        -0.964417         0.456818
 H         1.427003         2.013789        -0.543513
 H         1.679184         1.591152         1.354281
 H         4.460821        -0.701479        -0.118974
 H         2.356270        -1.095276         1.984272
 H         2.814900        -3.116784        -0.169621
 H         1.100068        -2.760191        -0.172203
 H         1.318377        -0.583694        -2.508209
