19
Iteration:  4377
 C        -0.202720        -0.219402         0.088826
 C         1.342782        -0.097052         0.180604
 C         1.920217         1.317413         0.350532
 O         3.431089         1.060792         0.183079
 C         3.386607        -0.320865        -0.010630
 C         2.368074        -1.044462         0.934553
 C         2.155049        -2.207787        -0.085423
 C         2.123164        -0.784674        -0.864657
 O         1.804640        -0.803857        -2.257717
 H        -0.647969        -1.040051         0.811382
 H        -0.759320         0.601536         0.467945
 H        -0.206062        -0.552868        -0.925458
 H         1.568067         2.054398        -0.410432
 H         1.818902         1.656428         1.342049
 H         4.426214        -0.764997        -0.208636
 H         2.495996        -1.088580         1.947210
 H         2.979398        -2.805865        -0.245131
 H         1.213899        -2.688698        -0.067551
 H         2.269348        -0.051948        -2.562280
