19
Iteration:  2125
 C        -0.252487        -0.146093         0.210709
 C         1.329162        -0.131236         0.259169
 C         1.991032         1.342593         0.341606
 O         3.408711         1.015920         0.233803
 C         3.397339        -0.349726         0.064606
 C         2.338917        -1.055925         0.887779
 C         2.135146        -2.101257        -0.201169
 C         2.189044        -0.847902        -0.994516
 O         1.882159        -0.760794        -2.323966
 H        -0.431828         0.493819         1.093195
 H        -0.591052         0.401955        -0.680490
 H        -0.804945        -1.040929         0.148843
 H         1.472046         2.059933        -0.241040
 H         1.872684         1.781193         1.315373
 H         4.442796        -0.776502         0.004817
 H         2.375338        -1.274210         2.063546
 H         2.866933        -2.927770        -0.274588
 H         1.064016        -2.570810        -0.106869
 H         1.600412        -1.600365        -2.621964
