19
Iteration:  1974charge 0 multiplicity 1
 C        -0.100132        -0.202795         0.132397
 C         1.367563        -0.065861         0.234891
 C         1.982589         1.339152         0.433935
 O         3.328338         1.014141         0.146503
 C         3.356686        -0.404548        -0.021639
 C         2.355922        -1.112636         0.930557
 C         1.967163        -2.107313        -0.161015
 C         2.176178        -0.788977        -0.909612
 O         1.943727        -0.695911        -2.270517
 H        -0.611538         0.437457         0.807964
 H        -0.301157         0.238309        -0.919476
 H        -0.334158        -1.281055         0.462109
 H         1.718931         2.140944        -0.313502
 H         1.802520         1.613599         1.524306
 H         4.330319        -0.788402        -0.427457
 H         2.422608        -1.168743         2.125081
 H         2.707158        -2.850686        -0.179192
 H         0.959352        -2.579956        -0.154840
 H         1.735195        -1.580130        -2.536831
