19
Iteration:  2728
 C        -0.197040        -0.193814         0.451709
 C         1.310267        -0.060855         0.235989
 C         1.899690         1.337802         0.276097
 O         3.261471         0.970002         0.086628
 C         3.324300        -0.396998        -0.036341
 C         2.293619        -1.063457         0.950441
 C         2.011023        -2.081022        -0.121825
 C         2.073044        -0.833817        -0.943349
 O         2.340279        -0.729272        -2.381258
 H        -0.456512         0.045844         1.489770
 H        -0.743973         0.456402        -0.222149
 H        -0.561840        -1.264304         0.196964
 H         1.528969         2.152027        -0.401518
 H         1.816222         1.550788         1.422549
 H         4.335655        -0.801231        -0.336779
 H         2.532428        -1.246626         1.988625
 H         2.766062        -2.837375        -0.309683
 H         1.148688        -2.659866        -0.021563
 H         1.490293        -0.589668        -2.773743
