19
Iteration:  4571charge 0 multiplicity 1
 C        -0.166649        -0.300574         0.146894
 C         1.363330        -0.016767         0.166671
 C         1.967332         1.362751         0.235592
 O         3.404275         1.070128         0.166448
 C         3.388774        -0.304515        -0.020920
 C         2.398221        -0.964314         0.967071
 C         2.065167        -2.128010         0.018191
 C         2.151808        -0.869087        -0.884613
 O         1.808386        -0.786105        -2.248687
 H        -0.830064         0.406469        -0.040062
 H        -0.210971        -0.873223        -0.764361
 H        -0.471854        -1.044114         0.834805
 H         1.598276         1.871127        -0.621441
 H         1.743636         1.980384         1.136797
 H         4.347972        -0.897018        -0.137680
 H         2.440849        -1.011412         2.032915
 H         2.706011        -3.019915        -0.057861
 H         1.054447        -2.631975         0.115068
 H         2.254930        -1.515260        -2.646461
