19
Iteration:  4213
 C        -0.149025        -0.352365         0.082707
 C         1.332577        -0.051955         0.238289
 C         2.016067         1.328008         0.419563
 O         3.352097         0.993851         0.187269
 C         3.354383        -0.371486        -0.016045
 C         2.383878        -1.043968         0.930091
 C         2.105335        -2.114167        -0.169492
 C         2.151079        -0.797542        -0.851436
 O         1.806131        -0.719504        -2.267695
 H        -0.567524         0.464876        -0.357868
 H        -0.585085        -0.912911        -0.746769
 H        -0.688289        -0.730419         0.942676
 H         1.844305         2.263918        -0.184675
 H         1.782841         1.597590         1.550504
 H         4.431511        -0.667921        -0.200897
 H         2.556722        -1.207835         1.934696
 H         3.069411        -2.647773        -0.328690
 H         1.109750        -2.673112        -0.139572
 H         2.230083         0.112407        -2.703546
