19
Iteration:  1091charge 0 multiplicity 1
 C        -0.129285         0.031697         0.142211
 C         1.365021        -0.052675         0.149853
 C         2.180606         1.306023         0.488250
 O         3.513794         0.871955         0.232120
 C         3.358692        -0.510679        -0.012582
 C         2.165426        -1.086935         0.901826
 C         2.045422        -2.171613        -0.124786
 C         2.076478        -0.794371        -0.927134
 O         1.748233        -0.647358        -2.342714
 H        -0.690564         0.177521        -0.864172
 H        -0.622047        -0.803632         0.607646
 H        -0.419996         0.975415         0.619446
 H         2.092600         2.192475        -0.195341
 H         2.085006         1.786978         1.502051
 H         4.326164        -1.125370         0.046807
 H         2.303214        -1.203432         1.971512
 H         2.927843        -2.843690        -0.264498
 H         1.074116        -2.696286        -0.231951
 H         2.031867        -1.560047        -2.755648
