19
Iteration:  3008
 C        -0.138597        -0.150367         0.139027
 C         1.304974        -0.129286         0.217547
 C         1.967468         1.286280         0.323750
 O         3.305269         1.069157         0.122598
 C         3.326987        -0.405455        -0.085567
 C         2.351036        -1.077668         0.946804
 C         2.116704        -2.265439        -0.003084
 C         2.155342        -0.859901        -0.921899
 O         1.932111        -0.622827        -2.237283
 H        -0.668312         0.342739         0.980040
 H        -0.540221         0.332120        -0.782426
 H        -0.645900        -1.156926         0.107243
 H         1.581258         1.868020        -0.486944
 H         1.819650         1.581264         1.350339
 H         4.345174        -0.784069        -0.314022
 H         2.470891        -1.284599         2.083320
 H         3.074967        -2.901414        -0.060081
 H         1.180321        -2.840366         0.162201
 H         2.624804         0.075776        -2.526261
