19
Iteration:  2444charge 0 multiplicity 1
 C        -0.251366        -0.180928         0.298271
 C         1.291622        -0.012577         0.216858
 C         1.954637         1.377333         0.353090
 O         3.411997         1.011339         0.193656
 C         3.335916        -0.422427        -0.094558
 C         2.245752        -1.058246         0.940905
 C         2.100082        -2.170194        -0.126618
 C         2.212974        -0.841465        -0.964469
 O         2.011144        -0.830276        -2.328530
 H        -0.739218         0.346768         1.082487
 H        -0.737074         0.162794        -0.652917
 H        -0.369576        -1.292925         0.379354
 H         1.877656         2.283909        -0.285320
 H         1.795883         1.826764         1.315863
 H         4.355246        -0.680764        -0.321793
 H         2.267481        -1.164768         2.005021
 H         2.999453        -2.891425         0.006616
 H         1.149941        -2.660026        -0.026258
 H         2.009431         0.017529        -2.751399
