19
Iteration:   596charge 0 multiplicity 1
 C        -0.104992         0.059409         0.314761
 C         1.383974        -0.043001         0.221735
 C         2.105960         1.299988         0.156363
 O         3.445724         0.863511         0.148623
 C         3.359371        -0.533599        -0.045057
 C         2.263916        -1.068533         0.951492
 C         1.789385        -2.169782        -0.039653
 C         2.160903        -0.912358        -0.947503
 O         1.909454        -0.636825        -2.271859
 H        -0.400568         0.483273         1.316846
 H        -0.576543         0.749695        -0.343179
 H        -0.586132        -1.005758         0.227581
 H         1.961207         1.861267        -0.814180
 H         1.924374         1.905418         1.017000
 H         4.279857        -0.989206        -0.018757
 H         2.341307        -1.200021         2.009817
 H         2.413700        -3.060384         0.040987
 H         0.783657        -2.472866        -0.120841
 H         2.726130        -0.340277        -2.613230
