19
Iteration:  1882
 C        -0.175041        -0.172043         0.440032
 C         1.301728        -0.071294         0.138544
 C         1.953887         1.349393         0.162327
 O         3.348537         0.973312         0.207654
 C         3.319866        -0.424041        -0.028062
 C         2.324690        -1.080308         0.921346
 C         1.866158        -2.162185        -0.106892
 C         2.206404        -0.836174        -0.974516
 O         2.192697        -0.733804        -2.320450
 H        -0.475018         0.033293         1.569585
 H        -0.801169         0.544489        -0.008681
 H        -0.584363        -1.109780         0.295852
 H         1.804215         1.877772        -0.830726
 H         1.620201         1.974969         1.078295
 H         4.324882        -0.782995        -0.184974
 H         2.469743        -1.139679         1.936522
 H         2.644243        -2.950602        -0.113307
 H         0.912934        -2.635579        -0.063585
 H         1.914421         0.258635        -2.435324
