19
Iteration:  1430charge 0 multiplicity 1
 C        -0.163326        -0.083394         0.104888
 C         1.352665        -0.021935         0.126015
 C         2.112243         1.291912         0.379305
 O         3.449758         0.922734         0.129019
 C         3.437713        -0.474102         0.020010
 C         2.267496        -1.005128         0.915416
 C         1.995154        -2.230785        -0.001564
 C         2.112622        -0.889705        -0.953184
 O         1.755168        -0.581354        -2.208597
 H        -0.540536         0.721882         0.777619
 H        -0.406856         0.051604        -0.871923
 H        -0.547834        -1.098828         0.226244
 H         1.897584         2.101528        -0.356644
 H         2.033163         1.563262         1.443161
 H         4.396752        -0.958363         0.104346
 H         2.487885        -0.916708         1.977303
 H         2.843987        -2.866645         0.006095
 H         1.071695        -2.751382        -0.107078
 H         2.156664        -1.196454        -2.936839
