19
Iteration:  4919charge 0 multiplicity 1
 C        -0.078580        -0.320601         0.140326
 C         1.346453         0.000180         0.186063
 C         1.944278         1.462029         0.180718
 O         3.372506         1.075224         0.108118
 C         3.342520        -0.311681         0.000674
 C         2.321758        -0.941496         1.012488
 C         2.051832        -2.058228         0.011677
 C         2.146761        -0.850750        -0.848329
 O         1.888689        -1.050102        -2.248681
 H        -0.283514        -1.287624         0.695608
 H        -0.702272         0.391417         0.650479
 H        -0.370346        -0.342740        -0.898625
 H         1.763130         2.111344        -0.649615
 H         1.805880         1.946928         1.142047
 H         4.314959        -0.879375        -0.070014
 H         2.491378        -1.060215         2.025178
 H         2.779034        -2.940144        -0.081116
 H         1.185756        -2.749112        -0.005191
 H         1.986561        -0.198635        -2.683400
