19
Iteration:  2128
 C        -0.236673        -0.130357         0.216955
 C         1.329250        -0.137383         0.264279
 C         2.004861         1.352211         0.350956
 O         3.418365         1.037452         0.232219
 C         3.391635        -0.345101         0.084066
 C         2.345439        -1.067415         0.901404
 C         2.125793        -2.129385        -0.214047
 C         2.162955        -0.843823        -1.005570
 O         1.884586        -0.763412        -2.315790
 H        -0.526206         0.489926         0.997614
 H        -0.564080         0.376882        -0.754877
 H        -0.852512        -1.088671         0.204895
 H         1.431822         1.963572        -0.363022
 H         1.861985         1.884790         1.334866
 H         4.340268        -0.733006        -0.060951
 H         2.380863        -1.371869         1.980177
 H         2.857688        -2.905057        -0.336497
 H         1.151486        -2.572688        -0.119696
 H         1.651624        -1.658306        -2.642130
