19
Iteration:  4583charge 0 multiplicity 1
 C        -0.104113        -0.379729         0.154593
 C         1.343009        -0.038014         0.164848
 C         1.920071         1.429064         0.220230
 O         3.383913         1.029620         0.142752
 C         3.342018        -0.387893        -0.038384
 C         2.365126        -0.925703         0.967516
 C         2.008581        -2.131456         0.034361
 C         2.148121        -0.848489        -0.875535
 O         1.894857        -0.790381        -2.248581
 H        -0.491985         0.470338         0.480549
 H        -0.546957        -0.712017        -0.755625
 H        -0.364754        -0.915952         1.021486
 H         1.839341         2.143921        -0.580087
 H         1.684118         1.903139         1.212143
 H         4.483284        -0.581090        -0.220000
 H         2.589529        -0.846750         1.976879
 H         2.837637        -2.758878        -0.331597
 H         0.928524        -2.472379         0.145232
 H         2.354972        -1.519139        -2.707827
