19
Iteration:  1166charge 0 multiplicity 1
 C        -0.275838        -0.117047         0.556404
 C         1.320681         0.010533         0.110713
 C         2.151141         1.332412         0.205697
 O         3.509510         0.815251         0.009079
 C         3.277424        -0.514559         0.038712
 C         2.100237        -1.028180         0.926829
 C         1.812911        -2.142720        -0.159159
 C         2.129525        -0.856108        -0.947170
 O         2.272917        -0.604816        -2.304493
 H        -0.843634         0.905795         0.620206
 H        -0.830266        -0.748790         0.007293
 H        -0.350746        -0.375451         1.691991
 H         1.821280         2.009282        -0.542730
 H         2.217144         1.877364         1.175823
 H         4.248558        -1.131733        -0.146278
 H         2.218717        -1.127093         2.007951
 H         2.526951        -2.947209        -0.227465
 H         0.880033        -2.662784         0.007614
 H         1.469195        -0.232387        -2.587901
