19
Iteration:  2775charge 0 multiplicity 1
 C        -0.198005        -0.245003         0.260101
 C         1.343571        -0.101040         0.110595
 C         1.902863         1.276390         0.292914
 O         3.356606         1.002266         0.165393
 C         3.416548        -0.422423         0.039525
 C         2.368757        -0.993224         0.966396
 C         2.085026        -2.106863        -0.090929
 C         2.143904        -0.850596        -0.942663
 O         1.989649        -0.610957        -2.293215
 H        -0.464542         0.198078         1.145704
 H        -0.528491         0.408963        -0.577847
 H        -0.610993        -1.193579         0.133488
 H         1.642891         1.923487        -0.523827
 H         1.638730         1.705908         1.311662
 H         4.379612        -0.883803        -0.036188
 H         2.179362        -1.070205         2.034419
 H         2.837103        -2.820562        -0.264276
 H         1.231822        -2.743578        -0.066349
 H         1.462128        -1.314364        -2.665585
