19
Iteration:  4204charge 0 multiplicity 1
 C        -0.167050        -0.258371         0.071655
 C         1.340834        -0.146259         0.232526
 C         1.964746         1.354170         0.419689
 O         3.347818         1.014597         0.171783
 C         3.340128        -0.367390         0.023992
 C         2.391255        -1.085173         0.951710
 C         2.159128        -2.171650        -0.169181
 C         2.160389        -0.782059        -0.923342
 O         1.797589        -0.679463        -2.237367
 H        -0.582600         0.616450        -0.327820
 H        -0.222369        -1.142929        -0.636662
 H        -0.746844        -0.408217         1.007494
 H         1.658175         2.157044        -0.210677
 H         1.956783         1.724620         1.440884
 H         4.366802        -0.850762        -0.154424
 H         2.526402        -1.150339         1.970424
 H         3.011916        -2.929934        -0.466550
 H         1.246855        -2.786471         0.027626
 H         2.230065         0.039061        -2.802731
