19
Iteration:  2582charge 0 multiplicity 1
 C        -0.219291        -0.043863         0.353812
 C         1.257011        -0.096260         0.252493
 C         1.919247         1.274276         0.312919
 O         3.310732         1.006793         0.155894
 C         3.347882        -0.359778        -0.039291
 C         2.299052        -1.082163         0.941843
 C         2.182885        -2.210706        -0.168078
 C         2.153855        -0.895716        -0.962287
 O         2.063758        -0.681848        -2.301059
 H        -0.791823         0.657757         1.039972
 H        -0.549176         0.400785        -0.537352
 H        -0.611369        -0.992281         0.435698
 H         1.587296         1.996166        -0.411681
 H         1.669518         1.823596         1.254067
 H         4.295211        -0.770552        -0.233478
 H         2.494113        -1.216986         2.005847
 H         3.002678        -2.841744        -0.337432
 H         1.244487        -2.711620        -0.216269
 H         2.432559        -1.421562        -2.893832
