19
Iteration:  1376charge 0 multiplicity 1
 C        -0.206113         0.050860         0.337590
 C         1.337553         0.014200         0.279891
 C         2.023147         1.354549         0.244064
 O         3.413033         0.910208         0.154165
 C         3.355624        -0.505524        -0.031246
 C         2.294375        -1.106053         0.954452
 C         1.937844        -2.118456        -0.187577
 C         2.132744        -0.831886        -0.930379
 O         2.046987        -0.871269        -2.290582
 H        -0.492414        -0.248013         1.452547
 H        -0.645488         1.008473        -0.025058
 H        -0.657994        -0.825206        -0.210077
 H         1.787664         2.010214        -0.658700
 H         1.949315         2.004312         1.180092
 H         4.284296        -0.994242        -0.252657
 H         2.411128        -1.319692         2.019043
 H         2.588042        -3.007622        -0.331475
 H         0.894793        -2.463743        -0.158462
 H         2.076588         0.058987        -2.755276
