19
Iteration:   988charge 0 multiplicity 1
 C        -0.249482         0.021627         0.608126
 C         1.285709         0.026765         0.168355
 C         2.100420         1.290663         0.358275
 O         3.459308         0.868658         0.112142
 C         3.266578        -0.510574         0.014333
 C         2.106982        -1.086469         0.842890
 C         1.938095        -2.125954        -0.244179
 C         2.076145        -0.858680        -1.033962
 O         2.215877        -0.753446        -2.393443
 H        -0.896763         0.178701        -0.185259
 H        -0.524097        -0.846355         1.286650
 H        -0.235280         0.871297         1.344780
 H         1.845011         1.997296        -0.386135
 H         2.167844         1.760101         1.348005
 H         4.225879        -1.092152        -0.120664
 H         1.946522        -1.113517         1.967817
 H         2.748611        -2.844947        -0.277597
 H         1.003334        -2.707923        -0.335459
 H         2.678782         0.005581        -2.642919
