19
Iteration:   276charge 0 multiplicity 1
 C        -0.173709         0.151129         0.357985
 C         1.341598        -0.008225         0.245689
 C         2.124559         1.302903         0.264804
 O         3.502697         0.830737         0.127606
 C         3.254460        -0.606152        -0.020750
 C         2.291189        -1.046283         0.936287
 C         1.699943        -2.172255         0.012343
 C         2.113878        -0.867488        -1.007790
 O         2.103601        -0.662773        -2.403994
 H        -0.432983         1.018726         0.977340
 H        -0.578300         0.456204        -0.695729
 H        -0.650349        -0.691600         0.750864
 H         1.865618         2.130463        -0.485032
 H         2.109527         1.868600         1.290177
 H         4.306794        -1.188613        -0.133662
 H         2.730413        -1.337325         1.922629
 H         2.301879        -3.021798         0.092771
 H         0.622066        -2.310229         0.020537
 H         2.259678        -1.509024        -2.709164
