19
Iteration:   121charge 0 multiplicity 1
 C        -0.137672         0.181795         0.451574
 C         1.319132        -0.030321         0.201706
 C         2.161324         1.269471         0.292106
 O         3.492709         0.904495         0.125726
 C         3.241121        -0.502023        -0.058003
 C         2.216540        -1.093566         0.977154
 C         1.777342        -2.178418        -0.069520
 C         2.061467        -0.932232        -1.017687
 O         2.109161        -0.741929        -2.416443
 H        -0.180598         0.387710         1.552562
 H        -0.526289         1.115474        -0.045571
 H        -0.816932        -0.694794         0.270895
 H         1.772639         1.882517        -0.537723
 H         2.032161         1.920696         1.176390
 H         4.176723        -1.025663        -0.279358
 H         2.233937        -1.080537         2.000589
 H         2.268688        -3.132548        -0.178852
 H         0.722791        -2.316210         0.080241
 H         3.072407        -1.091758        -2.647085
