19
Iteration:  2791
 C        -0.104246        -0.091762         0.165308
 C         1.313537        -0.114358         0.213337
 C         1.936558         1.243107         0.246280
 O         3.342533         1.052793         0.242738
 C         3.290329        -0.351574        -0.025275
 C         2.284699        -1.089859         0.942259
 C         2.202698        -2.270803        -0.082328
 C         2.178466        -0.880545        -0.905867
 O         1.901794        -0.602477        -2.289298
 H        -0.523486         0.416501         1.162567
 H        -0.526782         0.498748        -0.658714
 H        -0.419365        -1.200517         0.168863
 H         1.626804         1.923618        -0.590021
 H         1.734942         1.767374         1.156438
 H         4.395670        -0.578408        -0.120783
 H         2.637511        -1.162452         2.013122
 H         3.159814        -2.933790        -0.158879
 H         1.166480        -2.780561         0.018919
 H         1.664746        -1.329898        -2.810390
