19
Iteration:  1599
 C        -0.239414        -0.164703         0.122825
 C         1.334200        -0.069875         0.184428
 C         2.104534         1.305733         0.204534
 O         3.477438         0.917215         0.132782
 C         3.344083        -0.490136         0.049096
 C         2.251581        -1.002547         0.994667
 C         2.090254        -2.197641        -0.073533
 C         2.153283        -0.869775        -0.827960
 O         1.805214        -0.505668        -2.229409
 H        -0.631082        -0.141244         1.124027
 H        -0.661956         0.707202        -0.390446
 H        -0.424776        -1.019607        -0.479087
 H         1.832753         2.055467        -0.502916
 H         1.932129         1.948497         1.058557
 H         4.378701        -0.956349        -0.175041
 H         2.410412        -1.102621         2.088161
 H         3.006929        -2.859867        -0.066237
 H         1.220563        -2.905369         0.001481
 H         2.001236        -1.286689        -2.878328
