19
Iteration:  4087charge 0 multiplicity 1
 C        -0.196894        -0.268206         0.374144
 C         1.289211        -0.129689         0.270448
 C         1.888411         1.274967         0.480671
 O         3.339457         1.043197         0.173526
 C         3.317706        -0.388235        -0.094222
 C         2.316909        -1.051757         0.882742
 C         1.995795        -2.139901        -0.259766
 C         2.188923        -0.830112        -0.986912
 O         2.134991        -0.684169        -2.351089
 H        -0.846102        -1.085083         0.047218
 H        -0.323331        -0.330229         1.417585
 H        -0.687850         0.573994        -0.040968
 H         1.479719         1.982015        -0.368382
 H         1.847955         1.849916         1.456970
 H         4.362518        -0.583062        -0.305591
 H         2.563889        -1.307422         1.928367
 H         2.828012        -2.820714        -0.343504
 H         1.115724        -2.656904        -0.278575
 H         2.521435         0.174746        -2.603718
