19
Iteration:  2099charge 0 multiplicity 1
 C        -0.101393        -0.187559         0.236812
 C         1.352465        -0.039206         0.092526
 C         1.991190         1.313004         0.400607
 O         3.381775         1.023594         0.190099
 C         3.300278        -0.392390        -0.039088
 C         2.292622        -1.014891         0.910154
 C         2.049094        -2.196924        -0.025941
 C         2.075342        -0.855234        -0.968038
 O         2.034432        -0.678792        -2.316862
 H        -0.302356        -0.102998         1.365127
 H        -0.731895         0.503653        -0.315603
 H        -0.358074        -1.191697        -0.164521
 H         1.463444         2.069708        -0.255503
 H         1.773864         1.641895         1.437260
 H         4.257114        -0.776823        -0.447707
 H         2.317636        -1.076409         1.922355
 H         2.926036        -2.902015        -0.136318
 H         1.137841        -2.779937         0.078461
 H         1.401768        -1.265675        -2.664672
