19
Iteration:  1545charge 0 multiplicity 1
 C        -0.212519        -0.026737         0.333028
 C         1.316742        -0.043945         0.236485
 C         1.982086         1.336047         0.387694
 O         3.409354         0.999935         0.094830
 C         3.351703        -0.460160        -0.071364
 C         2.277254        -1.128808         0.933667
 C         1.942845        -2.102819        -0.149394
 C         2.151863        -0.846356        -0.894132
 O         2.094874        -0.843947        -2.326285
 H        -0.578667         0.659640         1.019688
 H        -0.705019         0.041127        -0.680076
 H        -0.658893        -0.984610         0.633149
 H         1.645964         1.902815        -0.452843
 H         1.880123         1.757001         1.414525
 H         4.408788        -0.938196        -0.189286
 H         2.475608        -1.314597         2.011788
 H         2.629626        -2.912218        -0.579943
 H         0.871704        -2.339254         0.109887
 H         2.301888         0.048451        -2.819434
