19
Iteration:  3535charge 0 multiplicity 1
 C        -0.182657        -0.376916         0.231197
 C         1.266902        -0.032306         0.193774
 C         1.994115         1.317302         0.356121
 O         3.379352         1.004881         0.150887
 C         3.351301        -0.425258         0.029471
 C         2.359079        -0.985426         0.969245
 C         2.026342        -2.091464        -0.175801
 C         2.132087        -0.779449        -0.904585
 O         1.956872        -0.718602        -2.332444
 H        -0.559126         0.465005         0.878849
 H        -0.651460        -0.290467        -0.714992
 H        -0.238217        -1.483355         0.573391
 H         1.561779         2.192348        -0.246725
 H         1.878925         1.622159         1.367475
 H         4.411062        -0.869152        -0.121088
 H         2.558242        -1.054544         2.027572
 H         2.770746        -2.840191        -0.548829
 H         0.989797        -2.576224         0.048104
 H         2.581361        -0.113179        -2.676064
