19
Iteration:  1915
 C        -0.130155        -0.106358         0.233500
 C         1.338571        -0.120772         0.265565
 C         1.947604         1.254826         0.213426
 O         3.393914         0.969948         0.129323
 C         3.328441        -0.431735         0.038572
 C         2.279611        -1.091195         0.955831
 C         2.050965        -2.148302        -0.170847
 C         2.152104        -0.834660        -0.889749
 O         1.926776        -0.661261        -2.221669
 H        -0.653270         0.410810         1.169385
 H        -0.447573         0.333046        -0.694299
 H        -0.530645        -1.073985         0.160268
 H         1.692265         1.817722        -0.759638
 H         1.681171         2.000158         1.073538
 H         4.312704        -0.853566        -0.099614
 H         2.435109        -1.177092         1.976138
 H         3.049259        -2.642934        -0.246827
 H         1.203189        -2.808863        -0.156763
 H         2.569471        -0.061194        -2.617544
