19
Iteration:  1920charge 0 multiplicity 1
 C        -0.134070        -0.099622         0.214026
 C         1.353207        -0.096147         0.226392
 C         1.948929         1.281595         0.254249
 O         3.384547         0.945986         0.128776
 C         3.306906        -0.419956         0.003547
 C         2.244782        -1.106435         0.959788
 C         2.101265        -2.136690        -0.126919
 C         2.149069        -0.883657        -0.866058
 O         1.898475        -0.637089        -2.217640
 H        -0.424742         0.427509         1.045768
 H        -0.393016         0.296182        -0.817069
 H        -0.444471        -1.208473         0.114608
 H         1.645820         1.866140        -0.587694
 H         1.811340         1.940027         1.050714
 H         4.333695        -0.854568        -0.073314
 H         2.467844        -1.065231         2.107878
 H         3.026083        -2.652700        -0.390963
 H         1.258725        -2.855472        -0.220439
 H         2.593208        -0.158603        -2.703247
