19
Iteration:  4627
 C        -0.241397        -0.106141         0.443089
 C         1.298234        -0.103106         0.134499
 C         1.908562         1.331555         0.116689
 O         3.261571         1.075959        -0.029134
 C         3.299332        -0.414613         0.010474
 C         2.308910        -1.012362         1.037877
 C         2.141120        -2.204887        -0.055046
 C         2.178967        -0.929291        -0.887754
 O         2.106999        -0.735703        -2.274214
 H        -0.310619         0.386352         1.397464
 H        -0.755511         0.379935        -0.382877
 H        -0.717349        -1.071722         0.535151
 H         1.455039         1.865043        -0.706717
 H         1.755003         1.890871         1.072773
 H         4.453337        -0.830513        -0.005214
 H         2.368712        -1.129185         2.065270
 H         3.143566        -2.674136        -0.025845
 H         1.096690        -2.694168        -0.037305
 H         2.937581        -1.148410        -2.588198
