19
Iteration:   273
 C        -0.182899         0.176384         0.329491
 C         1.322607        -0.007648         0.245324
 C         2.159057         1.316116         0.287036
 O         3.495924         0.836454         0.130456
 C         3.274233        -0.573463        -0.050111
 C         2.281226        -1.079346         0.961495
 C         1.710800        -2.186095        -0.012370
 C         2.123234        -0.873544        -1.001158
 O         2.085954        -0.675670        -2.385069
 H        -0.416778         1.062538         0.941049
 H        -0.582325         0.431720        -0.639876
 H        -0.652730        -0.673411         0.781845
 H         1.838093         2.149049        -0.481029
 H         2.122818         1.819836         1.290707
 H         4.203874        -1.051374        -0.176341
 H         2.669195        -1.340831         1.876987
 H         2.337668        -3.087852         0.058913
 H         0.661922        -2.371030         0.076376
 H         2.307212        -1.632997        -2.699631
