19
Iteration:  1617charge 0 multiplicity 1
 C        -0.194977        -0.211574         0.160374
 C         1.342331        -0.045132         0.203383
 C         2.034514         1.304529         0.159813
 O         3.502869         0.933609         0.176398
 C         3.400872        -0.450758         0.032934
 C         2.343135        -1.049011         0.967410
 C         1.976880        -2.146719        -0.093371
 C         2.113663        -0.803124        -0.884086
 O         1.906855        -0.580023        -2.177607
 H        -0.708035        -0.390069         1.249273
 H        -0.778007         0.617841        -0.245569
 H        -0.580931        -0.996088        -0.552427
 H         1.771294         1.870206        -0.854741
 H         1.854117         2.037075         1.025064
 H         4.343432        -0.916704         0.147610
 H         2.291365        -1.176327         2.072465
 H         2.632737        -2.961050        -0.360680
 H         0.941266        -2.439827        -0.173858
 H         1.543991        -1.324129        -2.759424
