19
Iteration:  3662
 C        -0.175585        -0.325697         0.164101
 C         1.360793        -0.088373         0.254978
 C         1.973697         1.379761         0.522759
 O         3.458957         1.069921         0.290239
 C         3.389737        -0.353699        -0.075803
 C         2.359896        -1.035209         0.840231
 C         1.969358        -2.169589        -0.168771
 C         2.068929        -0.837498        -0.946527
 O         1.924934        -0.751373        -2.357018
 H        -0.374321        -0.704957        -0.881517
 H        -0.489786        -1.249892         0.958955
 H        -0.747267         0.627097         0.176188
 H         1.604739         2.151580        -0.098973
 H         1.660238         1.713799         1.583648
 H         4.444888        -0.804678        -0.316858
 H         2.554383        -1.304069         1.852021
 H         2.823518        -2.815586        -0.588096
 H         1.006936        -2.602212        -0.054062
 H         2.067217         0.205788        -2.573149
