19
Iteration:   433
 C        -0.119808         0.073061         0.291351
 C         1.326793        -0.016796         0.176156
 C         2.071409         1.268399         0.209310
 O         3.547512         0.815373         0.131311
 C         3.364588        -0.608638        -0.040993
 C         2.270243        -1.060531         0.966419
 C         1.760416        -2.154472        -0.000260
 C         2.033364        -0.871234        -0.911571
 O         1.982021        -0.587296        -2.324022
 H        -0.316130         0.884920         1.022540
 H        -0.540423         0.482988        -0.561218
 H        -0.635572        -0.892740         0.682562
 H         1.906891         1.966849        -0.627337
 H         1.996203         1.882226         1.195082
 H         4.287771        -1.045313        -0.197139
 H         2.349422        -1.101313         2.040688
 H         2.417452        -3.050257        -0.106077
 H         0.713181        -2.384310         0.104323
 H         2.917670        -0.806167        -2.681289
