19
Iteration:  4417charge 0 multiplicity 1
 C        -0.152980        -0.118478         0.285364
 C         1.331287        -0.109033         0.211882
 C         1.915613         1.254049         0.272296
 O         3.331580         1.094027         0.122167
 C         3.343878        -0.345744        -0.028895
 C         2.348123        -1.084942         0.958731
 C         2.114092        -2.161589        -0.096836
 C         2.111217        -0.889989        -0.940009
 O         2.032034        -0.813738        -2.281684
 H        -0.620267        -1.072431         0.089247
 H        -0.553446         0.315961         1.298888
 H        -0.560731         0.540538        -0.543364
 H         1.529976         1.907860        -0.546890
 H         1.489206         1.715627         1.257065
 H         4.404150        -0.714937        -0.061476
 H         2.415410        -1.074493         2.145087
 H         3.137328        -2.729409        -0.217730
 H         1.171606        -2.859906        -0.132600
 H         1.691742         0.098302        -2.610809
