19
Iteration:   532
 C        -0.026555         0.136894         0.159513
 C         1.411578        -0.029335         0.163397
 C         2.109539         1.303013         0.464151
 O         3.467132         0.936710         0.110223
 C         3.350098        -0.491874        -0.096313
 C         2.306831        -1.051579         0.920755
 C         1.761241        -2.069003        -0.092314
 C         2.057486        -0.909302        -0.900460
 O         1.958432        -0.926625        -2.262129
 H        -0.378379         0.137819         1.226696
 H        -0.253024         1.023378        -0.310474
 H        -0.613129        -0.767742        -0.275696
 H         1.656291         2.172665        -0.114377
 H         2.001513         1.422993         1.638765
 H         4.318889        -0.816986        -0.113689
 H         2.531515        -1.242931         1.949319
 H         2.310605        -3.013584        -0.134701
 H         0.710917        -2.269519        -0.044692
 H         1.325110        -0.335517        -2.742559
