19
Iteration:  3414charge 0 multiplicity 1
 C        -0.208877        -0.363253         0.422951
 C         1.287933        -0.006908         0.160302
 C         1.915532         1.380527         0.303207
 O         3.349139         1.085025         0.047010
 C         3.368505        -0.391754         0.015317
 C         2.265049        -1.045244         0.891617
 C         1.903185        -2.138819        -0.163112
 C         2.266201        -0.865893        -0.889584
 O         2.115997        -0.759499        -2.261311
 H        -0.362006        -0.836459         1.473798
 H        -0.634408         0.586957         0.539519
 H        -0.587018        -0.922590        -0.558101
 H         1.612605         2.085697        -0.378031
 H         1.810063         1.872243         1.285770
 H         4.417125        -0.789802        -0.378404
 H         2.462709        -1.251579         1.911538
 H         2.587445        -3.048011        -0.319665
 H         0.831394        -2.271004        -0.302019
 H         2.902059        -0.306919        -2.658784
