19
Iteration:  2054charge 0 multiplicity 1
 C        -0.181032        -0.191939         0.465478
 C         1.290512        -0.134982         0.244160
 C         1.904246         1.298098         0.161984
 O         3.318784         1.008936        -0.003715
 C         3.388505        -0.400397        -0.017537
 C         2.251824        -1.120188         0.978964
 C         1.979533        -2.157208        -0.171119
 C         2.175745        -0.832555        -0.896130
 O         2.254467        -0.614387        -2.242184
 H        -0.369812        -0.118369         1.545808
 H        -0.734262         0.671106         0.023227
 H        -0.713481        -1.063494         0.027425
 H         1.580841         1.894886        -0.718863
 H         1.659160         1.864047         1.034515
 H         4.330574        -0.849004         0.081815
 H         2.244802        -1.388749         1.968110
 H         2.706185        -2.962534        -0.403732
 H         0.999839        -2.554512        -0.182451
 H         1.479299        -0.185617        -2.557779
