19
Iteration:  1570
 C        -0.129568        -0.021404         0.179293
 C         1.354874        -0.090788         0.207828
 C         2.025485         1.254724         0.323596
 O         3.377096         1.001456         0.126589
 C         3.375129        -0.450341        -0.035801
 C         2.323953        -1.053408         0.975208
 C         1.966921        -2.214375        -0.092385
 C         2.140679        -0.913588        -0.869460
 O         1.886968        -0.662379        -2.269660
 H        -0.508822         0.399116         1.118400
 H        -0.524046         0.575082        -0.706468
 H        -0.634374        -1.039222        -0.053681
 H         1.630585         1.985239        -0.420908
 H         1.842303         1.703739         1.353996
 H         4.379909        -0.820249        -0.265726
 H         2.471615        -1.127368         2.030224
 H         2.810247        -2.941638        -0.181693
 H         0.975095        -2.654680         0.092964
 H         2.691611        -0.487421        -2.857534
