19
Iteration:  4180
 C        -0.183259        -0.149129         0.207260
 C         1.344078        -0.254343         0.258797
 C         1.900252         1.226234         0.313395
 O         3.306404         1.060591         0.170684
 C         3.395258        -0.316828        -0.044433
 C         2.341221        -1.133328         0.944665
 C         2.134468        -2.191857        -0.168475
 C         2.204387        -0.845807        -0.887595
 O         1.886105        -0.603524        -2.261959
 H        -0.377238         0.538507        -0.542717
 H        -0.637768        -1.149690        -0.025874
 H        -0.648429         0.416132         1.033349
 H         1.680181         2.012104        -0.404586
 H         1.701208         1.637262         1.372198
 H         4.412080        -0.704935        -0.293420
 H         2.495067        -1.334139         1.969416
 H         3.063837        -2.822051        -0.241396
 H         1.238542        -2.915768        -0.155707
 H         2.401918         0.138055        -2.653306
