19
Iteration:  2113
 C        -0.191454        -0.136895         0.234517
 C         1.323301        -0.050366         0.098304
 C         1.929413         1.258491         0.394552
 O         3.363114         0.989011         0.216514
 C         3.409977        -0.397340        -0.052173
 C         2.305393        -1.014049         0.932380
 C         2.100990        -2.124435        -0.093913
 C         2.249070        -0.824883        -0.928622
 O         1.907621        -0.714944        -2.351539
 H        -0.625486         0.120153         1.252493
 H        -0.636065         0.543818        -0.465919
 H        -0.527737        -1.129716         0.155410
 H         1.871572         2.064329        -0.282032
 H         1.755565         1.475894         1.423129
 H         4.478489        -0.808712         0.027550
 H         2.468647        -0.980845         2.075978
 H         2.951768        -2.839932        -0.224251
 H         1.055491        -2.619062        -0.195875
 H         1.411184        -1.581080        -2.554479
