19
Iteration:  3372
 C        -0.259723        -0.101656         0.310797
 C         1.253159        -0.166270         0.158982
 C         1.918348         1.302878         0.236802
 O         3.327147         0.999509         0.152633
 C         3.291543        -0.392300        -0.076369
 C         2.377066        -1.038791         0.931043
 C         2.199836        -2.233410        -0.089051
 C         2.158736        -0.885540        -0.945965
 O         2.020710        -0.652520        -2.250368
 H        -0.711054        -0.447259         1.292353
 H        -0.632999         0.879916         0.411472
 H        -0.764078        -0.619570        -0.577234
 H         1.612883         2.117365        -0.484903
 H         1.667959         1.673653         1.409089
 H         4.375188        -0.731609        -0.205166
 H         2.378879        -1.130856         1.987198
 H         3.097230        -2.828049        -0.062845
 H         1.277676        -2.788947         0.180660
 H         2.914528        -0.348904        -2.629772
