19
Iteration:  2863
 C        -0.172773        -0.335928         0.329426
 C         1.333742        -0.041852         0.154290
 C         1.989174         1.314103         0.359372
 O         3.366603         1.010343         0.101949
 C         3.322161        -0.421689        -0.048758
 C         2.289043        -0.973430         0.912279
 C         1.958894        -2.170938        -0.006196
 C         2.171247        -0.840088        -0.948267
 O         2.034807        -0.641459        -2.376648
 H        -0.702467         0.048192         1.152660
 H        -0.815936         0.013170        -0.538952
 H        -0.315889        -1.370740         0.360535
 H         1.728613         2.100906        -0.368044
 H         1.831813         1.769106         1.493874
 H         4.301016        -0.841402         0.054096
 H         2.499704        -1.062322         2.009060
 H         2.643680        -2.961036        -0.080670
 H         0.936099        -2.585941         0.028216
 H         2.825245        -0.221159        -2.672844
