19
Iteration:  3866charge 0 multiplicity 1
 C        -0.150156        -0.375284         0.091207
 C         1.313554        -0.092027         0.302446
 C         2.013293         1.343460         0.448062
 O         3.414499         0.983493         0.314904
 C         3.390588        -0.419230        -0.009625
 C         2.390025        -1.145165         0.892286
 C         2.048018        -2.145415        -0.308206
 C         2.151946        -0.779683        -0.970716
 O         1.813274        -0.511187        -2.264655
 H        -0.926707         0.362600         0.508600
 H        -0.320733        -0.761378        -0.956584
 H        -0.656930        -1.223604         0.654811
 H         1.724219         2.074011        -0.189676
 H         1.883998         1.689502         1.525610
 H         4.431995        -0.762399        -0.430472
 H         2.595148        -1.394145         1.939189
 H         2.830446        -2.925119        -0.456347
 H         1.032646        -2.575064        -0.321760
 H         1.926955         0.472948        -2.338893
