19
Iteration:  3402
 C        -0.167970        -0.265376         0.411387
 C         1.325282        -0.087249         0.273960
 C         1.947751         1.363365         0.295711
 O         3.309123         1.043826         0.045340
 C         3.315300        -0.360211        -0.011580
 C         2.273671        -1.030092         0.936510
 C         1.976123        -2.139511        -0.164789
 C         2.184423        -0.852569        -0.965036
 O         2.124979        -0.722961        -2.323855
 H        -0.479939        -0.936611         1.258189
 H        -0.780956         0.618708         0.423086
 H        -0.653541        -0.861135        -0.480130
 H         1.570188         2.012974        -0.408811
 H         1.862101         1.754665         1.272446
 H         4.394019        -0.787000         0.049905
 H         2.222588        -1.198675         2.001919
 H         2.729134        -3.027152        -0.181552
 H         1.021969        -2.580241        -0.029360
 H         2.967174        -0.514427        -2.693384
