19
Iteration:   423
 C        -0.160236         0.071578         0.266507
 C         1.369943         0.028999         0.132997
 C         2.209348         1.378891         0.253679
 O         3.539151         0.846545         0.113999
 C         3.263395        -0.601293        -0.016365
 C         2.235714        -1.104845         0.978101
 C         1.805711        -2.138378        -0.034873
 C         2.077979        -0.880273        -0.884733
 O         1.930427        -0.683417        -2.316610
 H        -0.398510         0.726386         1.143351
 H        -0.634968         0.317469        -0.615017
 H        -0.655485        -0.978641         0.478624
 H         1.945525         2.153738        -0.437211
 H         1.986359         1.699732         1.323768
 H         4.090529        -1.168514        -0.180948
 H         2.349700        -1.268309         2.021145
 H         2.512759        -2.994173        -0.285115
 H         0.824282        -2.555368         0.167413
 H         2.897692        -0.452669        -2.645127
