19
Iteration:  4445charge 0 multiplicity 1
 C        -0.237381        -0.262013         0.479695
 C         1.239590        -0.022499         0.210281
 C         1.908434         1.371992         0.210178
 O         3.354978         0.992594         0.070053
 C         3.344957        -0.371628        -0.014615
 C         2.346947        -1.034951         0.958660
 C         2.004301        -2.144225        -0.078228
 C         2.193172        -0.845791        -0.997618
 O         2.183362        -0.802244        -2.322609
 H        -0.769129        -1.037524        -0.157058
 H        -0.400765        -0.682742         1.471169
 H        -0.698736         0.635929         0.067119
 H         1.634469         2.007482        -0.644437
 H         1.623706         1.814424         1.131204
 H         4.348777        -0.736174        -0.046563
 H         2.323661        -0.929629         2.028259
 H         2.771905        -2.866450        -0.117646
 H         1.033858        -2.520866        -0.173072
 H         1.980526         0.123278        -2.665662
