19
Iteration:    54
 C        -0.142042         0.127539         0.109122
 C         1.374964         0.022313         0.163689
 C         2.201754         1.238803         0.318750
 O         3.571617         0.827677         0.128337
 C         3.351596        -0.586005        -0.054613
 C         2.184113        -1.046469         0.926656
 C         1.870655        -2.221643         0.039924
 C         2.117190        -0.897745        -0.923672
 O         1.875575        -0.604011        -2.250447
 H        -0.482287         0.864596         0.884553
 H        -0.715746         0.319685        -0.801352
 H        -0.449357        -0.979923         0.465120
 H         1.944232         1.892463        -0.479036
 H         1.984395         1.853339         1.230953
 H         4.252793        -1.162108        -0.105953
 H         2.403516        -1.174908         2.006829
 H         2.619094        -3.029549         0.026595
 H         0.790041        -2.481020         0.103127
 H         1.063163        -0.179114        -2.261996
