19
Iteration:  4316
 C        -0.172696        -0.226504         0.460303
 C         1.267511        -0.171171         0.199583
 C         1.909296         1.305270         0.234696
 O         3.277721         1.002386         0.089123
 C         3.334402        -0.396367        -0.040410
 C         2.271448        -1.054286         0.919888
 C         2.075978        -2.153331        -0.139891
 C         2.158048        -0.834289        -0.928957
 O         2.115920        -0.606965        -2.303671
 H        -0.278262        -0.130027         1.477680
 H        -0.721333         0.494320        -0.165115
 H        -0.734840        -1.121066         0.165448
 H         1.503252         1.896873        -0.584417
 H         1.862565         1.865273         1.234203
 H         4.338886        -0.743714        -0.106080
 H         2.544100        -1.191354         2.046155
 H         2.987454        -2.904279        -0.176161
 H         1.165660        -2.741508        -0.360025
 H         2.953737        -0.231820        -2.489294
