19
Iteration:  4829charge 0 multiplicity 1
 C        -0.228010        -0.278658         0.419412
 C         1.307881        -0.008068         0.160540
 C         1.896718         1.331542         0.084601
 O         3.342530         1.049982        -0.102349
 C         3.384189        -0.390671         0.036150
 C         2.245210        -0.864053         0.977271
 C         1.964275        -2.076080         0.093901
 C         2.188910        -0.933764        -0.896672
 O         2.178576        -0.885972        -2.261597
 H        -0.575016        -1.223067         0.036448
 H        -0.342873        -0.559624         1.453796
 H        -0.866638         0.548700         0.283719
 H         1.588532         1.823556        -0.823858
 H         1.777800         1.970853         0.958950
 H         4.363275        -0.675774        -0.108914
 H         2.230560        -0.913808         2.119779
 H         2.721326        -3.059216         0.019893
 H         0.921157        -2.460682         0.073516
 H         2.790444        -0.289971        -2.625117
