19
Iteration:  2220charge 0 multiplicity 1
 C        -0.255150        -0.201743         0.332318
 C         1.282964        -0.080286         0.302387
 C         1.951036         1.274872         0.231624
 O         3.382821         0.945971         0.039225
 C         3.333196        -0.461252        -0.041105
 C         2.333201        -0.978123         0.979699
 C         1.983677        -2.159622        -0.156537
 C         2.103324        -0.812463        -0.878865
 O         2.120316        -0.654386        -2.258080
 H        -0.723948         0.212053         1.331350
 H        -0.674250         0.125508        -0.595554
 H        -0.465733        -1.253197         0.198359
 H         1.526817         2.016379        -0.533732
 H         1.994215         1.970060         1.114711
 H         4.394533        -0.957716        -0.278545
 H         2.607910        -1.183743         2.023561
 H         2.788735        -2.861027        -0.400091
 H         0.988896        -2.676900        -0.169801
 H         2.777436         0.114207        -2.345786
