19
Iteration:  1706charge 0 multiplicity 1
 C        -0.202663        -0.020811         0.398181
 C         1.330827        -0.040051         0.224713
 C         1.994802         1.325003         0.351606
 O         3.291758         1.025283         0.051870
 C         3.308646        -0.507623        -0.044613
 C         2.278411        -1.103814         0.975544
 C         1.970749        -2.175834        -0.143941
 C         2.168755        -0.886301        -0.967555
 O         2.220564        -0.774967        -2.348831
 H        -0.439450         0.708808         1.379831
 H        -0.597114         0.368181        -0.583839
 H        -0.649885        -1.017893         0.535300
 H         1.492596         2.050650        -0.412174
 H         1.894673         1.546849         1.453455
 H         4.358034        -0.913750         0.068560
 H         2.275853        -1.205910         2.097006
 H         2.715391        -2.910745        -0.416183
 H         0.961072        -2.559763        -0.160036
 H         1.660161        -0.015190        -2.668581
