19
Iteration:   745charge 0 multiplicity 1
 C        -0.100079        -0.062325         0.256011
 C         1.407407         0.003787         0.051976
 C         2.131020         1.303133         0.176852
 O         3.514927         0.873334         0.112348
 C         3.336658        -0.541925        -0.001088
 C         2.174832        -1.058661         0.985164
 C         1.923075        -2.215523        -0.036648
 C         2.103535        -0.859817        -0.886741
 O         1.868553        -0.621777        -2.216876
 H        -0.295908        -0.284403         1.240313
 H        -0.724021         0.817636        -0.130904
 H        -0.500936        -0.880442        -0.229398
 H         1.890393         2.119681        -0.540712
 H         1.918517         1.776140         1.239504
 H         4.311067        -0.997338        -0.026093
 H         2.034415        -1.128747         2.008388
 H         2.782965        -2.926840        -0.082210
 H         0.932923        -2.606417         0.042775
 H         1.854681         0.403214        -2.322824
