19
Iteration:   936charge 0 multiplicity 1
 C        -0.203702        -0.017493         0.288913
 C         1.359340         0.017458         0.263889
 C         2.073626         1.289701         0.369852
 O         3.507600         0.925804         0.195194
 C         3.341399        -0.493127        -0.097925
 C         2.238662        -1.112111         0.932012
 C         1.884939        -2.125310        -0.176016
 C         2.093171        -0.802603        -0.939903
 O         1.987792        -0.806639        -2.312866
 H        -0.473903         1.018174        -0.091898
 H        -0.526941        -0.728264        -0.380207
 H        -0.656154        -0.191397         1.324649
 H         1.756631         2.068374        -0.359557
 H         1.942378         1.766516         1.383196
 H         4.295882        -1.006582        -0.239142
 H         2.568400        -1.281955         1.975910
 H         2.571079        -2.922023        -0.427138
 H         0.848804        -2.506230        -0.196425
 H         2.353804        -0.061034        -2.717472
