19
Iteration:  2092
 C        -0.118411        -0.240836         0.235247
 C         1.340863        -0.043427         0.189573
 C         1.973845         1.366718         0.357179
 O         3.385847         1.046236         0.164919
 C         3.277588        -0.399352        -0.075698
 C         2.293095        -1.066221         0.884865
 C         2.039754        -2.183504        -0.051027
 C         2.042515        -0.877868        -0.919744
 O         2.093972        -0.672556        -2.331466
 H        -0.376649        -0.240810         1.320782
 H        -0.605577         0.630771        -0.185038
 H        -0.450509        -1.198867        -0.053177
 H         1.715545         2.156814        -0.305033
 H         1.975663         1.596512         1.413049
 H         4.339029        -0.793070        -0.231027
 H         2.271071        -1.004577         2.058834
 H         2.896599        -2.872020        -0.128864
 H         1.045051        -2.695657         0.230076
 H         1.380364        -1.068300        -2.828443
