19
Iteration:  3922
 C        -0.201846        -0.192116         0.473901
 C         1.268938        -0.197813         0.282031
 C         1.883169         1.213657         0.447519
 O         3.296417         1.002072         0.212749
 C         3.321509        -0.395489        -0.016959
 C         2.374997        -1.211789         0.827348
 C         2.062423        -2.165896        -0.357937
 C         2.109637        -0.764994        -1.009040
 O         2.156957        -0.523555        -2.389830
 H        -0.612865         0.766919         1.050697
 H        -0.848021        -0.037189        -0.412262
 H        -0.463687        -1.071297         1.126940
 H         1.446717         1.780618        -0.229994
 H         1.692051         1.751989         1.433780
 H         4.487820        -0.729584        -0.070342
 H         2.494336        -1.299164         1.870214
 H         2.932430        -2.762304        -0.810445
 H         1.172692        -2.696974        -0.409211
 H         2.671402         0.360424        -2.406433
