19
Iteration:  1126charge 0 multiplicity 1
 C        -0.119749         0.087051         0.388040
 C         1.331913        -0.075321         0.252702
 C         2.043772         1.268712         0.302400
 O         3.420742         0.921285         0.229453
 C         3.317585        -0.494961        -0.086777
 C         2.297972        -1.151693         0.877684
 C         1.792415        -2.136421        -0.171687
 C         2.125703        -0.790595        -0.946027
 O         2.130374        -0.695867        -2.360864
 H        -0.480425         0.893818        -0.288586
 H        -0.925399        -0.744173         0.437564
 H        -0.120683         0.384257         1.414596
 H         1.792600         1.878628        -0.638555
 H         1.895318         1.834312         1.251003
 H         4.363664        -0.862663        -0.116408
 H         2.388035        -1.285254         1.976571
 H         2.448663        -3.007504        -0.521040
 H         0.722589        -2.457197        -0.073440
 H         1.685143        -1.572480        -2.659915
