19
Iteration:   601charge 0 multiplicity 1
 C        -0.103789         0.011180         0.351115
 C         1.369284        -0.053050         0.241403
 C         2.112677         1.322128         0.129242
 O         3.476319         0.882183         0.137400
 C         3.343506        -0.497603        -0.000306
 C         2.271988        -1.111568         0.940155
 C         1.742077        -2.136215        -0.034378
 C         2.169350        -0.923516        -0.952625
 O         1.927763        -0.620020        -2.305947
 H        -0.445474         0.499906         1.275906
 H        -0.500052         0.747942        -0.430305
 H        -0.607644        -0.896132         0.370329
 H         1.776723         1.729718        -0.853731
 H         1.829532         2.006343         1.040804
 H         4.373441        -1.078584         0.024173
 H         2.488430        -1.303437         2.046223
 H         2.292233        -3.115465         0.001726
 H         0.641042        -2.500911        -0.085822
 H         2.879109        -0.473902        -2.712388
