19
Iteration:  4926charge 0 multiplicity 1
 C        -0.106345        -0.366675         0.155744
 C         1.315037        -0.012664         0.198218
 C         1.983756         1.454925         0.184656
 O         3.374796         1.067789         0.099154
 C         3.308232        -0.347316        -0.015557
 C         2.353876        -0.915711         1.014593
 C         2.022765        -2.099945         0.001469
 C         2.197873        -0.837086        -0.842396
 O         1.910667        -1.017991        -2.266634
 H        -0.273461        -1.232678         0.830762
 H        -0.681180         0.472046         0.604197
 H        -0.472381        -0.408730        -0.886247
 H         1.662028         1.993228        -0.728460
 H         1.786368         2.042331         1.104829
 H         4.230023        -0.807580        -0.175887
 H         2.324398        -1.008479         2.205041
 H         3.004494        -2.660476         0.006932
 H         0.960731        -2.359949         0.099632
 H         2.042253        -0.191183        -2.664414
