19
Iteration:  1279
 C        -0.195701        -0.045126         0.188219
 C         1.354070        -0.055727         0.168350
 C         2.123490         1.345414         0.300325
 O         3.503848         0.895111         0.207513
 C         3.383839        -0.488162        -0.028975
 C         2.329682        -1.028848         0.931353
 C         1.943340        -2.128639        -0.113266
 C         2.103792        -0.855381        -0.890677
 O         1.860148        -0.680994        -2.281192
 H        -0.498562         0.547412         1.066396
 H        -0.384251         0.532666        -0.727048
 H        -0.694447        -0.951913         0.356011
 H         1.732195         2.100291        -0.351699
 H         1.912061         1.772171         1.308609
 H         4.333965        -0.971073        -0.138218
 H         2.288582        -1.114858         2.018413
 H         2.520374        -3.104050        -0.221804
 H         0.861649        -2.396554        -0.040164
 H         1.654574        -1.610961        -2.678149
