19
Iteration:  3661
 C        -0.174110        -0.331288         0.165844
 C         1.366654        -0.089894         0.253785
 C         1.970042         1.382953         0.523268
 O         3.459877         1.068027         0.293710
 C         3.387587        -0.354106        -0.077967
 C         2.353180        -1.023989         0.835740
 C         1.966653        -2.162330        -0.173246
 C         2.068885        -0.843374        -0.945799
 O         1.928086        -0.750407        -2.357698
 H        -0.346638        -0.693756        -0.893301
 H        -0.474106        -1.248737         0.963245
 H        -0.747996         0.614522         0.223970
 H         1.611705         2.148434        -0.121158
 H         1.707392         1.684718         1.568733
 H         4.418818        -0.794750        -0.298211
 H         2.551697        -1.303587         1.860736
 H         2.823716        -2.817598        -0.589334
 H         0.980815        -2.634731        -0.036509
 H         2.055051         0.178488        -2.552980
