19
Iteration:   965charge 0 multiplicity 1
 C        -0.138847         0.066693         0.526924
 C         1.370970         0.040764         0.164441
 C         1.980967         1.301025         0.406041
 O         3.391347         0.927986         0.188863
 C         3.331391        -0.487245        -0.064504
 C         2.230419        -1.130166         0.884307
 C         1.781779        -2.113006        -0.212395
 C         2.113914        -0.877397        -1.016833
 O         2.172564        -0.847171        -2.435550
 H        -0.584388         0.609336        -0.238616
 H        -0.645774        -0.995438         0.700633
 H        -0.177869         0.517849         1.536956
 H         1.704248         2.144222        -0.200887
 H         1.921707         1.522689         1.477770
 H         4.443799        -0.760859        -0.052911
 H         2.523123        -1.232772         1.985424
 H         2.288573        -3.074619        -0.398925
 H         0.699859        -2.357412        -0.289033
 H         2.811372        -0.134777        -2.762537
