19
Iteration:   595
 C        -0.107464         0.064252         0.312866
 C         1.386938        -0.038482         0.215278
 C         2.102850         1.295476         0.160521
 O         3.442924         0.860672         0.150446
 C         3.358430        -0.541590        -0.051766
 C         2.260094        -1.060352         0.954324
 C         1.802184        -2.176159        -0.041948
 C         2.156054        -0.910034        -0.942340
 O         1.904606        -0.641292        -2.265029
 H        -0.380295         0.463349         1.311621
 H        -0.599173         0.760655        -0.363703
 H        -0.571981        -0.983938         0.199172
 H         1.988917         1.878717        -0.777493
 H         1.947496         1.891164         1.002994
 H         4.305100        -0.986491        -0.037547
 H         2.315624        -1.176750         2.002802
 H         2.447286        -3.051552         0.030152
 H         0.791254        -2.458732        -0.117113
 H         2.737398        -0.301059        -2.624184
