19
Iteration:  3438
 C        -0.164765        -0.304236         0.381624
 C         1.341939        -0.074648         0.201425
 C         1.946552         1.298727         0.247012
 O         3.334217         1.014031         0.133092
 C         3.323174        -0.373689         0.023851
 C         2.307027        -0.987506         0.920794
 C         1.986881        -2.111535        -0.114413
 C         2.095160        -0.827074        -0.947694
 O         2.134348        -0.757083        -2.364069
 H        -0.363673        -0.785314         1.414033
 H        -0.638389         0.662081         0.482239
 H        -0.459634        -0.908388        -0.536688
 H         1.649242         2.046995        -0.485986
 H         1.748037         1.807333         1.294010
 H         4.313068        -0.865058        -0.195371
 H         2.301995        -1.118778         1.993206
 H         2.735048        -2.867683        -0.260367
 H         0.946484        -2.485903         0.181337
 H         2.295305         0.109491        -2.671261
