19
Iteration:  4101charge 0 multiplicity 1
 C        -0.161219        -0.337324         0.508932
 C         1.319264        -0.074909         0.175041
 C         1.929962         1.312398         0.407888
 O         3.306513         1.078938         0.156261
 C         3.321160        -0.353264        -0.049150
 C         2.295951        -1.139820         0.849789
 C         1.958841        -2.148885        -0.217818
 C         2.123056        -0.776710        -0.976416
 O         2.219606        -0.702509        -2.390958
 H        -0.367075        -1.087206        -0.272124
 H        -0.320608        -0.646078         1.543593
 H        -0.792318         0.582756         0.358739
 H         1.546853         2.113473        -0.280202
 H         1.691889         1.609061         1.508203
 H         4.258267        -0.819683        -0.194312
 H         2.219451        -1.226355         2.017306
 H         2.544773        -3.000032        -0.511854
 H         0.834168        -2.349570        -0.151627
 H         2.581831         0.172861        -2.572724
