19
Iteration:  3801
 C        -0.261226        -0.188389         0.411716
 C         1.288440        -0.174208         0.188092
 C         1.945453         1.224496         0.484077
 O         3.368269         1.012658         0.243538
 C         3.314100        -0.381740        -0.076249
 C         2.311452        -1.155298         0.805367
 C         2.141122        -2.161253        -0.279004
 C         2.095288        -0.755087        -0.996833
 O         2.084943        -0.614647        -2.323319
 H        -0.533796         0.360204         1.362736
 H        -0.665422         0.307573        -0.469559
 H        -0.668786        -1.202846         0.561453
 H         1.440500         2.161081        -0.115469
 H         1.809301         1.556743         1.571475
 H         4.328634        -0.789860        -0.476660
 H         2.320977        -1.390964         1.881512
 H         3.107402        -2.678637        -0.447594
 H         1.192130        -2.651926        -0.368866
 H         2.456180         0.204752        -2.593379
