19
Iteration:  3027
 C        -0.246430        -0.091949         0.229073
 C         1.289984        -0.159062         0.292421
 C         1.853706         1.239659         0.263341
 O         3.358796         0.965462         0.059961
 C         3.334381        -0.388229         0.024609
 C         2.391986        -1.111709         0.990504
 C         2.205520        -2.180113        -0.111723
 C         2.164398        -0.890439        -0.859116
 O         1.973946        -0.603352        -2.315089
 H        -0.603901         0.656455         0.954437
 H        -0.557108         0.459963        -0.830255
 H        -0.848969        -0.974336         0.342421
 H         1.334097         1.720819        -0.655256
 H         1.690621         1.769230         1.173421
 H         4.375545        -0.849746        -0.102246
 H         2.441123        -0.976227         2.190122
 H         3.020396        -2.782381        -0.306932
 H         1.252104        -2.798208        -0.133861
 H         2.701833         0.105576        -2.421668
