19
Iteration:  4140
 C        -0.215886        -0.293529         0.525008
 C         1.263861        -0.101714         0.209640
 C         1.937980         1.288993         0.277132
 O         3.362008         1.033346         0.168761
 C         3.285928        -0.373817        -0.034729
 C         2.251951        -1.100585         0.897444
 C         2.065378        -2.173954        -0.216885
 C         2.154308        -0.792611        -0.996744
 O         2.177692        -0.628616        -2.351673
 H        -0.730324        -0.572082        -0.440898
 H        -0.598399        -1.173711         1.114124
 H        -0.675827         0.614270         1.021007
 H         1.429631         1.966381        -0.425934
 H         1.851367         1.711759         1.233040
 H         4.398834        -0.615759        -0.191982
 H         2.233363        -1.258496         1.942602
 H         2.866215        -2.975275        -0.383584
 H         1.098567        -2.644154        -0.198049
 H         2.626524         0.189086        -2.601671
