19
Iteration:   897charge 0 multiplicity 1
 C        -0.171361        -0.027268         0.061133
 C         1.349846        -0.120040         0.147420
 C         2.125893         1.267496         0.217071
 O         3.606217         0.933314         0.140633
 C         3.409942        -0.498406         0.102585
 C         2.305862        -1.112338         0.964259
 C         1.931819        -2.185751        -0.042733
 C         2.107369        -0.896688        -0.881174
 O         1.725200        -0.561122        -2.209814
 H        -0.682564         0.904785         0.335491
 H        -0.703346        -0.268319        -0.975581
 H        -0.554094        -0.819760         0.654050
 H         1.840854         2.065122        -0.480718
 H         2.043958         1.539649         1.238156
 H         4.362888        -1.012017         0.067550
 H         2.227886        -1.095888         2.004011
 H         2.751696        -2.965579        -0.148391
 H         1.009308        -2.731695        -0.168869
 H         1.745846         0.449390        -2.162412
