19
Iteration:  3950charge 0 multiplicity 1
 C        -0.254973        -0.135966         0.582643
 C         1.241286        -0.204841         0.262529
 C         1.872577         1.265083         0.485030
 O         3.259905         1.011524         0.200247
 C         3.314874        -0.377122        -0.114686
 C         2.278832        -1.221509         0.776692
 C         2.153562        -2.197502        -0.349210
 C         2.212145        -0.831249        -1.039508
 O         2.186272        -0.543549        -2.357366
 H        -0.264390         0.487054         1.439812
 H        -0.744890         0.539547        -0.134333
 H        -0.725775        -1.131427         0.619376
 H         1.382043         2.083959        -0.292415
 H         1.772350         1.649491         1.492211
 H         4.323898        -0.630181        -0.120716
 H         2.406898        -1.395156         1.906445
 H         2.964287        -2.871174        -0.592941
 H         1.223900        -2.884219        -0.518501
 H         2.755041         0.247811        -2.456017
