19
Iteration:  3554charge 0 multiplicity 1
 C        -0.171605        -0.307049         0.379088
 C         1.378331        -0.089996         0.226594
 C         1.949914         1.346109         0.349623
 O         3.373505         1.034996         0.070135
 C         3.315942        -0.391135        -0.041471
 C         2.209619        -1.106934         0.912806
 C         2.005665        -2.170034        -0.151458
 C         2.189621        -0.838779        -0.947640
 O         2.045969        -0.624893        -2.300383
 H        -0.743935         0.552417         0.732339
 H        -0.639355        -0.574137        -0.539423
 H        -0.256219        -1.158217         1.086322
 H         1.457338         2.143045        -0.399458
 H         1.590323         1.922917         1.364833
 H         4.456385        -0.723906        -0.146827
 H         2.125917        -1.297385         1.964738
 H         2.951498        -2.785854        -0.094771
 H         1.062788        -2.592374        -0.302279
 H         2.807241        -0.203441        -2.639958
