19
Iteration:   817
 C        -0.088844         0.095014         0.547246
 C         1.280939         0.018339         0.092138
 C         2.045983         1.282509         0.368216
 O         3.407705         0.923809         0.083720
 C         3.282242        -0.518933         0.031622
 C         2.118241        -0.996105         0.870549
 C         1.912382        -2.138926        -0.107532
 C         2.155685        -0.919620        -1.002044
 O         2.117951        -0.852070        -2.445067
 H        -0.026399        -0.318496         1.653993
 H        -0.700917         1.015717         0.551447
 H        -0.705663        -0.685884        -0.040209
 H         1.767326         2.233741        -0.113217
 H         1.942618         1.508172         1.408438
 H         4.322327        -0.902299        -0.091498
 H         1.960207        -0.910764         1.980783
 H         2.731450        -2.834858        -0.282103
 H         0.859279        -2.491280        -0.151665
 H         3.012251        -0.489262        -2.675186
