19
Iteration:   176
 C        -0.147555         0.020510         0.234751
 C         1.383683         0.048870         0.326357
 C         2.140562         1.345543         0.116253
 O         3.582555         0.833375         0.057888
 C         3.420746        -0.605572         0.090361
 C         2.217854        -1.129786         1.002194
 C         1.742097        -2.145936        -0.107572
 C         2.082323        -0.847956        -0.864552
 O         1.864376        -0.589972        -2.260135
 H        -0.661543         0.200443         1.213844
 H        -0.438567         0.905037        -0.446021
 H        -0.540562        -0.870299        -0.224934
 H         1.903083         1.819701        -0.879367
 H         2.119441         2.008341         1.031243
 H         4.396426        -1.091054        -0.150887
 H         2.215401        -1.298368         2.017196
 H         2.440642        -2.962030        -0.103192
 H         0.773380        -2.568902        -0.001845
 H         2.618612        -1.115179        -2.712087
