19
Iteration:  3433charge 0 multiplicity 1
 C        -0.176004        -0.313913         0.388098
 C         1.352431        -0.072621         0.166279
 C         1.945022         1.311150         0.263499
 O         3.339575         1.033556         0.117867
 C         3.354183        -0.370127        -0.012973
 C         2.328440        -1.026128         0.953669
 C         1.927561        -2.085743        -0.129750
 C         2.098987        -0.809105        -0.944533
 O         2.135477        -0.770207        -2.325684
 H        -0.227113        -0.883126         1.299548
 H        -0.797587         0.617263         0.471399
 H        -0.583456        -0.974987        -0.398561
 H         1.603243         2.063191        -0.493625
 H         1.752512         1.701628         1.202592
 H         4.354543        -0.849467        -0.045079
 H         2.247096        -1.079885         2.064375
 H         2.699341        -2.918313        -0.296071
 H         0.966874        -2.470917         0.058581
 H         2.472769         0.127244        -2.678293
