19
Iteration:  2800
 C        -0.207737        -0.080255         0.169525
 C         1.332435        -0.077597         0.236996
 C         1.941913         1.338687         0.253007
 O         3.316255         1.054453         0.252644
 C         3.350064        -0.349530        -0.077068
 C         2.347118        -1.171845         0.973526
 C         2.223744        -2.257845        -0.069121
 C         2.198851        -0.890586        -0.921907
 O         1.867859        -0.613937        -2.265485
 H        -0.624111         0.520004         1.043049
 H        -0.333745         0.454149        -0.773145
 H        -0.702985        -1.027651         0.061804
 H         1.666124         1.865189        -0.662256
 H         1.657672         1.832194         1.075203
 H         4.380329        -0.774278        -0.177027
 H         2.502693        -1.466899         2.086297
 H         3.089014        -2.988750        -0.168664
 H         1.346241        -3.027548        -0.226305
 H         1.885807        -1.406513        -2.747045
