19
Iteration:  1242charge 0 multiplicity 1
 C        -0.114686         0.054311         0.098383
 C         1.396262        -0.004261         0.166851
 C         2.124796         1.344900         0.407190
 O         3.500314         0.899601         0.245840
 C         3.347364        -0.453834         0.035638
 C         2.293828        -1.043875         0.917062
 C         2.088818        -2.200863        -0.137928
 C         2.107510        -0.894966        -0.927191
 O         1.608094        -0.778278        -2.260956
 H        -0.380704         1.166734         0.298596
 H        -0.454416        -0.084702        -0.892419
 H        -0.877737        -0.657307         0.601241
 H         2.109798         2.114582        -0.372515
 H         2.011485         1.699934         1.445999
 H         4.326639        -1.075639        -0.127131
 H         2.204968        -1.195350         2.006834
 H         2.888704        -2.899376        -0.166227
 H         1.105266        -2.647138        -0.297414
 H         2.449515        -0.835390        -2.889916
