19
Iteration:  3444
 C        -0.133885        -0.280818         0.387964
 C         1.282043        -0.061471         0.224039
 C         1.937158         1.319701         0.276352
 O         3.345249         1.005523         0.148472
 C         3.302182        -0.409875         0.023856
 C         2.284603        -0.972849         0.901367
 C         2.041022        -2.135714        -0.078191
 C         2.134967        -0.852439        -0.948206
 O         2.115482        -0.755731        -2.394781
 H        -0.555359        -0.714501         1.269948
 H        -0.592201         0.736429         0.342396
 H        -0.546659        -0.758142        -0.530070
 H         1.631115         1.987601        -0.591949
 H         1.777367         1.824985         1.187633
 H         4.307820        -0.761225        -0.311268
 H         2.420963        -1.146258         1.984252
 H         2.853314        -2.943501        -0.225085
 H         1.101826        -2.599331         0.042085
 H         2.109207         0.243237        -2.598136
