19
Iteration:  2815
 C        -0.268762        -0.064655         0.127579
 C         1.308736        -0.187312         0.240820
 C         1.893917         1.298404         0.264224
 O         3.380502         1.005126         0.207938
 C         3.413246        -0.400242         0.037278
 C         2.422849        -1.113698         0.949029
 C         2.199237        -2.157167        -0.198298
 C         2.131138        -0.821051        -0.842104
 O         1.856336        -0.674869        -2.216870
 H        -0.731223         0.608344         0.948499
 H        -0.562631         0.450812        -0.807497
 H        -0.806368        -1.128184         0.188132
 H         1.616496         1.867269        -0.669142
 H         1.796474         2.026097         1.163782
 H         4.472001        -0.618529        -0.235567
 H         2.507346        -1.199235         1.997266
 H         3.162073        -2.732981        -0.487772
 H         1.267941        -2.692086        -0.056237
 H         2.333133        -1.366778        -2.753290
