19
Iteration:  1491
 C        -0.190471        -0.078703         0.483496
 C         1.330449        -0.096167         0.136224
 C         2.017196         1.308045         0.191501
 O         3.442710         0.931321         0.171504
 C         3.343274        -0.429276        -0.029384
 C         2.223468        -1.101341         0.932186
 C         1.881025        -2.152783        -0.080614
 C         2.128475        -0.881445        -0.918987
 O         2.201605        -0.604034        -2.367764
 H        -0.650628         0.833876         0.772988
 H        -0.808090        -0.300761        -0.526021
 H        -0.510204        -0.782555         1.304862
 H         1.812012         1.906436        -0.714907
 H         1.687572         1.862055         1.123221
 H         4.423971        -0.890061        -0.109836
 H         2.312182        -1.090861         2.038930
 H         2.575881        -3.063571        -0.198408
 H         0.796572        -2.456670        -0.230150
 H         1.320466        -0.923473        -2.818304
