19
Iteration:  2197charge 0 multiplicity 1
 C        -0.105269        -0.297000         0.306870
 C         1.330334        -0.083847         0.146370
 C         1.987019         1.362432         0.230572
 O         3.402406         0.979601         0.008888
 C         3.329883        -0.445490         0.055802
 C         2.221600        -1.105795         0.989040
 C         1.974473        -2.195782        -0.062845
 C         2.159045        -0.834254        -0.888635
 O         1.975163        -0.517551        -2.254112
 H        -0.424981         0.452955         1.093406
 H        -0.596286        -0.175944        -0.645906
 H        -0.386764        -1.337269         0.565125
 H         1.737003         2.113882        -0.575712
 H         1.796343         1.980834         1.173019
 H         4.343698        -0.929999        -0.177841
 H         2.200341        -1.329879         2.016499
 H         2.764138        -2.946432        -0.134745
 H         1.008694        -2.645385        -0.060507
 H         2.801435        -0.224773        -2.581503
