19
Iteration:   796charge 0 multiplicity 1
 C        -0.165137         0.029336         0.538739
 C         1.296818        -0.017318         0.205728
 C         2.020748         1.351106         0.335232
 O         3.431871         0.959898         0.095175
 C         3.281532        -0.477990        -0.084233
 C         2.261010        -1.081242         0.896040
 C         1.792173        -2.174040        -0.155703
 C         2.075208        -0.863696        -0.987332
 O         2.208881        -0.851143        -2.378985
 H        -0.396641        -0.189204         1.663447
 H        -0.490569         1.166323         0.501983
 H        -0.936574        -0.369095        -0.183223
 H         1.783437         2.062942        -0.464039
 H         1.818590         1.872708         1.235747
 H         4.319956        -0.858052        -0.283037
 H         2.462109        -1.361927         1.928655
 H         2.570401        -2.962119        -0.204937
 H         0.714151        -2.477244        -0.050492
 H         3.209888        -0.678355        -2.517755
