19
Iteration:  4782charge 0 multiplicity 1
 C        -0.258977        -0.159055         0.375275
 C         1.290186        -0.081284         0.215479
 C         1.867313         1.326049         0.042412
 O         3.358911         1.046763         0.005306
 C         3.319835        -0.305772        -0.027253
 C         2.314480        -0.920815         1.012501
 C         2.120072        -2.118021         0.011394
 C         2.177319        -0.925594        -0.854944
 O         2.082759        -0.925674        -2.250725
 H        -0.700530        -1.049175        -0.035961
 H        -0.683349        -0.225603         1.396512
 H        -0.713895         0.730981        -0.150285
 H         1.729037         1.836231        -0.850630
 H         1.824582         2.068365         0.834027
 H         4.307275        -0.883014         0.016139
 H         2.389942        -0.942095         2.140413
 H         2.916435        -2.981829        -0.026598
 H         1.096778        -2.635590         0.066947
 H         2.856511        -0.496163        -2.688101
