19
Iteration:  1734
 C        -0.188442        -0.178002         0.264286
 C         1.351662        -0.065905         0.185964
 C         2.028261         1.291847         0.222235
 O         3.442474         1.015397         0.229105
 C         3.360306        -0.481257        -0.083406
 C         2.337019        -1.055701         0.941878
 C         1.917659        -2.124798        -0.087813
 C         2.139798        -0.857565        -0.917804
 O         1.978743        -0.695822        -2.257688
 H        -0.617282         0.572623         0.820001
 H        -0.595279        -0.114134        -0.763395
 H        -0.627408        -1.162312         0.535235
 H         1.699749         1.936542        -0.609059
 H         1.722504         1.849335         1.116662
 H         4.336067        -0.924809        -0.114317
 H         2.394929        -1.167711         2.049319
 H         2.573693        -3.003246        -0.352639
 H         0.864670        -2.498413         0.061271
 H         2.213107         0.202174        -2.509197
