19
Iteration:  4994charge 0 multiplicity 1
 C        -0.324286        -0.090212         0.454129
 C         1.265016        -0.112907         0.254789
 C         1.827186         1.317483         0.100752
 O         3.317955         1.059384        -0.123299
 C         3.286213        -0.363808         0.036357
 C         2.299129        -1.022665         1.047621
 C         2.159076        -2.179572        -0.026838
 C         2.200340        -0.947623        -0.959121
 O         2.209249        -0.808688        -2.249613
 H        -0.488867        -0.130819         1.567983
 H        -0.724822         0.848994         0.140922
 H        -0.796762        -0.698154        -0.231543
 H         1.362524         1.777113        -0.751302
 H         1.731641         1.868438         1.042959
 H         4.259854        -0.747949        -0.158488
 H         2.495640        -1.185965         2.071926
 H         3.080463        -2.940346        -0.046875
 H         1.123558        -2.624963         0.037747
 H         3.022615        -0.241819        -2.529904
