19
Iteration:  1731charge 0 multiplicity 1
 C        -0.206668        -0.172580         0.269309
 C         1.336718        -0.062226         0.172206
 C         1.997283         1.275359         0.250248
 O         3.452831         1.000430         0.204532
 C         3.353758        -0.438842        -0.062437
 C         2.347460        -1.051329         0.941304
 C         1.891163        -2.142178        -0.094036
 C         2.157686        -0.846742        -0.926470
 O         2.015932        -0.711356        -2.248470
 H        -0.528305         0.725884         1.006798
 H        -0.568551        -0.063853        -0.815145
 H        -0.616011        -1.151791         0.573167
 H         1.684500         1.858120        -0.717737
 H         1.737104         1.770500         1.211434
 H         4.351213        -0.886527        -0.277626
 H         2.419817        -1.262467         1.963164
 H         2.555610        -3.002751        -0.312314
 H         0.862356        -2.475504         0.119044
 H         2.132899         0.271224        -2.568491
