19
Iteration:  2686
 C        -0.102041        -0.068977         0.377648
 C         1.304532        -0.104357         0.153242
 C         1.904389         1.277659         0.218429
 O         3.279837         1.006090         0.163427
 C         3.263440        -0.384148         0.025685
 C         2.286683        -1.130169         0.989616
 C         2.161979        -2.174593        -0.147983
 C         2.182243        -0.850982        -0.957186
 O         2.113428        -0.653143        -2.315554
 H        -0.377168         0.283853         1.312981
 H        -0.681006         0.498577        -0.355560
 H        -0.636784        -1.055986         0.250014
 H         1.656341         1.825144        -0.675339
 H         1.664193         1.737793         1.135674
 H         4.325541        -0.748395        -0.046837
 H         2.183755        -1.333831         2.045783
 H         3.067019        -2.827508        -0.255575
 H         1.326301        -2.856397        -0.192775
 H         1.225318        -0.789684        -2.621491
