19
Iteration:   360charge 0 multiplicity 1
 C        -0.115799         0.241615         0.186708
 C         1.430186         0.009142         0.121433
 C         2.063806         1.360321         0.293574
 O         3.520096         0.868272         0.249517
 C         3.360681        -0.585146        -0.103429
 C         2.342696        -1.066536         0.908832
 C         1.749430        -2.255942         0.011999
 C         2.073129        -0.945410        -0.948748
 O         1.985407        -0.740166        -2.257618
 H        -0.488531         0.417446         1.226057
 H        -0.415125         1.210569        -0.306020
 H        -0.722710        -0.580234        -0.279330
 H         1.865813         2.117243        -0.468670
 H         1.897253         1.797050         1.240829
 H         4.289479        -1.096706        -0.314254
 H         2.461499        -1.079643         1.940989
 H         2.430928        -3.129574        -0.301473
 H         0.793097        -2.620573         0.416756
 H         1.017260        -1.040126        -2.591082
