19
Iteration:  3354
 C        -0.210166        -0.104831         0.225410
 C         1.342645        -0.142496         0.185180
 C         1.906549         1.261634         0.261889
 O         3.324646         1.077103         0.141523
 C         3.429503        -0.348963         0.031990
 C         2.292591        -1.093687         0.952982
 C         2.177449        -2.249651        -0.107622
 C         2.215490        -0.897260        -0.882963
 O         1.873856        -0.665979        -2.259566
 H        -0.613278        -0.448667         1.184776
 H        -0.691233         1.009483         0.222421
 H        -0.694152        -0.625353        -0.525442
 H         1.525676         1.711436        -0.691983
 H         1.640325         1.775848         1.089363
 H         4.392164        -0.790849        -0.077254
 H         2.558306        -1.217281         2.056352
 H         3.036871        -2.894315        -0.325422
 H         1.175453        -2.790776        -0.254322
 H         2.693733        -0.254882        -2.711003
