19
Iteration:  4022
 C        -0.159189        -0.345492         0.084559
 C         1.385461        -0.132609         0.213220
 C         1.965712         1.265591         0.429146
 O         3.362583         0.992041         0.280136
 C         3.389975        -0.347091         0.031951
 C         2.429108        -1.151410         0.909383
 C         2.089610        -2.130266        -0.219554
 C         2.154257        -0.747115        -0.938380
 O         1.795653        -0.564623        -2.279204
 H        -0.597660        -0.987258         0.965389
 H        -0.603420         0.623340         0.394652
 H        -0.476387        -0.534451        -0.956850
 H         1.558299         1.798003        -0.470834
 H         1.772162         1.917356         1.375962
 H         4.343921        -0.785733        -0.303325
 H         2.576790        -1.413720         1.983000
 H         2.812067        -2.929959        -0.410996
 H         1.153831        -2.659214        -0.125009
 H         1.921404         0.344181        -2.507673
