19
Iteration:  2991charge 0 multiplicity 1
 C        -0.169274        -0.284163         0.137641
 C         1.349943        -0.064016         0.143454
 C         1.890441         1.334900         0.391970
 O         3.389747         1.000691         0.104977
 C         3.397771        -0.382748        -0.005220
 C         2.363428        -1.037190         0.995585
 C         2.046202        -2.146805        -0.088987
 C         2.142512        -0.844091        -0.898260
 O         1.893059        -0.713713        -2.249665
 H        -0.620968         0.008222         1.099589
 H        -0.577388         0.261534        -0.734704
 H        -0.396867        -1.352011        -0.029176
 H         1.690526         2.198384        -0.337766
 H         1.881680         1.733730         1.481091
 H         4.403604        -0.735247        -0.123394
 H         2.467699        -0.995293         2.047127
 H         2.786844        -2.900937        -0.367981
 H         1.038547        -2.482747        -0.102717
 H         2.597290        -0.091415        -2.652657
