19
Iteration:  4394
 C        -0.221435        -0.148046         0.120577
 C         1.295846        -0.108539         0.206630
 C         1.967740         1.307976         0.340626
 O         3.311636         1.065070         0.164506
 C         3.401085        -0.381869         0.001662
 C         2.374115        -1.031786         0.984792
 C         2.198399        -2.149833        -0.105032
 C         2.241531        -0.895523        -0.958666
 O         1.836111        -0.811898        -2.257005
 H        -0.589930        -1.029770         0.497335
 H        -0.545707         0.741099         0.813618
 H        -0.707816        -0.039260        -0.926295
 H         1.514597         1.981364        -0.408614
 H         1.737680         1.880562         1.369868
 H         4.426965        -0.683388        -0.086923
 H         2.559047        -1.335061         2.147386
 H         3.133068        -2.876063        -0.314462
 H         1.174466        -2.730610        -0.043711
 H         1.897163         0.075432        -2.577268
