19
Iteration:  1609charge 0 multiplicity 1
 C        -0.257734        -0.179843         0.143602
 C         1.328137        -0.025941         0.175566
 C         2.109446         1.316603         0.191727
 O         3.469855         0.944007         0.153184
 C         3.401016        -0.494183         0.037348
 C         2.265994        -0.999110         1.022302
 C         2.055518        -2.164885        -0.107150
 C         2.154845        -0.897931        -0.909571
 O         1.847289        -0.518520        -2.175014
 H        -0.807519        -0.471781         1.118426
 H        -0.723881         0.681225        -0.350020
 H        -0.499948        -1.069174        -0.398817
 H         1.928014         1.728607        -0.831330
 H         1.873268         1.804673         1.148099
 H         4.438174        -1.042335         0.005046
 H         2.431537        -1.083083         2.138996
 H         2.836330        -2.840491        -0.516733
 H         1.049164        -2.601473         0.123648
 H         1.769408        -1.408186        -2.650052
