19
Iteration:  1429
 C        -0.155850        -0.079950         0.111341
 C         1.352154        -0.012561         0.119029
 C         2.105370         1.290718         0.385170
 O         3.446048         0.918721         0.132389
 C         3.432702        -0.474605         0.018287
 C         2.267617        -1.005791         0.914382
 C         1.994783        -2.228949         0.006347
 C         2.116181        -0.887283        -0.958557
 O         1.749700        -0.586969        -2.213640
 H        -0.539895         0.681108         0.776415
 H        -0.368547         0.056684        -0.880978
 H        -0.547964        -1.110425         0.202717
 H         1.919644         2.092182        -0.352140
 H         2.062080         1.558066         1.432961
 H         4.443652        -0.962371         0.124023
 H         2.492248        -0.903104         1.984947
 H         2.841901        -2.852370        -0.010546
 H         1.075519        -2.754993        -0.105726
 H         2.178729        -1.177408        -2.943749
