19
Iteration:  2666
 C        -0.289713        -0.228936         0.241102
 C         1.281695        -0.090776         0.258308
 C         1.950253         1.344682         0.214085
 O         3.411336         0.994171         0.222918
 C         3.378355        -0.419335        -0.012316
 C         2.350753        -1.020993         0.941537
 C         2.099578        -2.175495        -0.158275
 C         2.157513        -0.819161        -0.885977
 O         2.026569        -0.637114        -2.267349
 H        -0.691571         0.142236         1.177549
 H        -0.702089         0.321669        -0.663531
 H        -0.646695        -1.269223         0.080058
 H         1.748944         1.888383        -0.720090
 H         1.795763         1.951182         1.064806
 H         4.376165        -0.861431        -0.148716
 H         2.545256        -1.166382         1.997583
 H         3.015506        -2.758766        -0.395624
 H         1.138961        -2.796634        -0.064065
 H         1.332095        -1.087206        -2.713887
