19
Iteration:  4396
 C        -0.209624        -0.123634         0.134235
 C         1.273497        -0.121296         0.198566
 C         1.945562         1.317477         0.338052
 O         3.311937         1.054628         0.161780
 C         3.396540        -0.383792         0.011491
 C         2.368817        -1.019264         0.989613
 C         2.212517        -2.171640        -0.107404
 C         2.249483        -0.876104        -0.953352
 O         1.846996        -0.816868        -2.267555
 H        -0.633881        -1.059223         0.512403
 H        -0.495065         0.640192         0.898135
 H        -0.583921        -0.017500        -0.913994
 H         1.467353         1.978954        -0.423211
 H         1.806919         1.850806         1.315425
 H         4.472075        -0.704438        -0.152028
 H         2.528146        -1.330851         2.090546
 H         3.069910        -2.881083        -0.331572
 H         1.175788        -2.681483        -0.026403
 H         1.858790         0.083660        -2.533240
