19
Iteration:   732charge 0 multiplicity 1
 C        -0.176930        -0.083895         0.170050
 C         1.325469        -0.010628         0.148934
 C         2.176563         1.287244         0.271947
 O         3.499426         0.830879         0.140876
 C         3.418471        -0.537910         0.011910
 C         2.235003        -0.958496         0.937527
 C         1.936658        -2.155104        -0.031950
 C         2.163401        -0.904926        -0.918491
 O         1.807424        -0.634784        -2.247933
 H        -0.541616         0.194472         1.173790
 H        -0.661025         0.780265        -0.448647
 H        -0.487790        -0.973182        -0.280093
 H         2.056263         2.051722        -0.523825
 H         1.959836         1.752619         1.321310
 H         4.395362        -1.091369        -0.072579
 H         2.402400        -0.903424         1.992553
 H         2.710225        -2.968637        -0.105160
 H         0.959701        -2.715914        -0.083697
 H         1.409431         0.240606        -2.263744
