19
Iteration:  2567
 C        -0.193422        -0.104313         0.363395
 C         1.362556        -0.105505         0.160885
 C         1.888290         1.314387         0.293026
 O         3.294318         0.994145         0.177896
 C         3.324883        -0.399647         0.003854
 C         2.332714        -1.098528         0.942170
 C         2.054468        -2.133178        -0.158802
 C         2.203653        -0.813453        -0.920014
 O         2.045870        -0.692398        -2.376864
 H        -0.170506         0.378184         1.300430
 H        -0.889889         0.397972        -0.441976
 H        -0.720661        -1.140361         0.495824
 H         1.469349         1.905002        -0.618823
 H         1.662377         1.834574         1.221613
 H         4.445783        -0.766433         0.110811
 H         2.514467        -1.244672         2.029540
 H         2.931199        -2.863027        -0.247525
 H         1.064231        -2.695303        -0.004033
 H         2.624333        -1.395626        -2.804128
