19
Iteration:   115
 C        -0.142069         0.147356         0.425170
 C         1.338237        -0.030315         0.260950
 C         2.162736         1.297616         0.296821
 O         3.491617         0.905825         0.132687
 C         3.263622        -0.491461        -0.059020
 C         2.205848        -1.092454         0.963598
 C         1.750076        -2.154745        -0.142095
 C         2.090685        -0.930285        -0.976947
 O         2.084944        -0.801041        -2.387784
 H        -0.194519         0.444675         1.473114
 H        -0.457820         1.060542        -0.115716
 H        -0.802558        -0.678963         0.368252
 H         1.871080         2.049075        -0.550956
 H         2.040986         1.988261         1.143801
 H         4.245979        -0.887063        -0.516738
 H         2.167300        -1.165545         2.149912
 H         2.328527        -3.110111        -0.207134
 H         0.620508        -2.182124        -0.152422
 H         2.981723        -1.006121        -2.659932
