19
Iteration:  3093charge 0 multiplicity 1
 C        -0.225550        -0.310577         0.387699
 C         1.275179        -0.013930         0.142450
 C         1.876516         1.343019         0.316495
 O         3.396227         1.016024         0.194357
 C         3.322679        -0.382184        -0.039913
 C         2.350136        -0.976301         0.909832
 C         1.952396        -2.093028        -0.132069
 C         2.169518        -0.815401        -0.980072
 O         2.168236        -0.852656        -2.342178
 H        -0.469294         0.078655         1.356126
 H        -0.989802         0.121903        -0.389087
 H        -0.225614        -1.364627         0.434741
 H         1.715906         2.281396        -0.295469
 H         1.839847         1.821850         1.305230
 H         4.330796        -0.859768        -0.222939
 H         2.334700        -1.182618         2.087868
 H         2.628049        -2.850050        -0.254905
 H         0.950705        -2.556497        -0.170137
 H         2.261433         0.022294        -2.667185
