19
Iteration:  3537charge 0 multiplicity 1
 C        -0.164750        -0.373754         0.259873
 C         1.264182        -0.019830         0.185608
 C         1.991021         1.319165         0.360503
 O         3.359618         1.000561         0.137843
 C         3.359029        -0.420918         0.036162
 C         2.344539        -1.001363         0.959114
 C         2.034951        -2.086108        -0.173265
 C         2.135674        -0.777061        -0.910322
 O         1.963523        -0.710720        -2.332110
 H        -0.611102         0.470247         0.887845
 H        -0.636558        -0.366585        -0.788040
 H        -0.224666        -1.435971         0.605420
 H         1.637346         2.088343        -0.277165
 H         1.963007         1.608526         1.336751
 H         4.321110        -0.842557        -0.094913
 H         2.505841        -1.110909         2.055893
 H         2.716983        -2.847804        -0.505413
 H         0.993762        -2.599917         0.026337
 H         2.636788        -0.130125        -2.674732
