19
Iteration:  4664
 C        -0.250086        -0.176037         0.419781
 C         1.300245        -0.110681         0.195407
 C         1.941386         1.315317         0.089942
 O         3.300053         1.119996         0.029525
 C         3.334349        -0.434572         0.025117
 C         2.340805        -0.965081         0.989998
 C         2.083211        -2.153586         0.054347
 C         2.186472        -0.958689        -0.913507
 O         2.070697        -0.802373        -2.331304
 H        -0.582547        -0.277929         1.425450
 H        -0.644200         0.825217         0.311341
 H        -0.748354        -0.820864        -0.305910
 H         1.647435         1.832597        -0.920135
 H         1.503046         1.946542         0.884016
 H         4.350364        -0.656453        -0.150137
 H         2.550657        -1.084541         2.120488
 H         2.774557        -3.000806        -0.045895
 H         1.190892        -2.681771        -0.079193
 H         2.841733        -0.218597        -2.670387
