19
Iteration:  3015charge 0 multiplicity 1
 C        -0.200869        -0.091689         0.194259
 C         1.324716        -0.174758         0.242308
 C         1.880781         1.226652         0.311964
 O         3.348306         1.049482         0.099851
 C         3.349398        -0.398861        -0.077817
 C         2.315499        -1.061075         0.995440
 C         2.175319        -2.241770        -0.020802
 C         2.117804        -0.908432        -0.934465
 O         1.956017        -0.595567        -2.267465
 H        -0.733525         0.466690         0.965521
 H        -0.332941         0.325931        -0.932918
 H        -0.567899        -1.085477         0.134287
 H         1.609734         1.961785        -0.538481
 H         1.723629         1.755493         1.272391
 H         4.412297        -0.785405        -0.158883
 H         2.687688        -1.378530         2.053991
 H         2.997660        -2.838956        -0.149143
 H         1.207535        -2.818559         0.092522
 H         2.620860         0.082284        -2.509511
