19
Iteration:  3212charge 0 multiplicity 1
 C        -0.185306        -0.303710         0.354859
 C         1.318148        -0.091240         0.135274
 C         1.950259         1.335959         0.273260
 O         3.396818         1.061240         0.175911
 C         3.326777        -0.408397        -0.031645
 C         2.275079        -1.072668         0.914333
 C         2.022988        -2.193813        -0.083510
 C         2.152578        -0.801699        -0.922865
 O         2.026425        -0.670017        -2.324150
 H        -0.544088         0.346817         1.096424
 H        -0.849712        -0.133406        -0.543158
 H        -0.271144        -1.269072         0.631486
 H         1.590960         1.956634        -0.556972
 H         1.726720         1.883196         1.362005
 H         4.405755        -0.747613        -0.128064
 H         2.164819        -1.045056         2.069952
 H         2.894158        -2.782512        -0.261776
 H         1.007197        -2.750326        -0.227645
 H         2.829630        -0.141045        -2.671823
