19
Iteration:  3144charge 0 multiplicity 1
 C        -0.306458        -0.050009         0.195179
 C         1.309514        -0.167109         0.160061
 C         1.894472         1.221327         0.328301
 O         3.278645         1.046485         0.121090
 C         3.373436        -0.400541        -0.022941
 C         2.400930        -1.066267         0.954144
 C         2.224999        -2.228154        -0.056569
 C         2.172796        -0.872964        -0.904150
 O         1.954085        -0.702970        -2.258274
 H        -0.586263         0.301087         1.199973
 H        -0.460044         0.822197        -0.405537
 H        -0.829578        -0.894047        -0.246865
 H         1.637554         1.875174        -0.541084
 H         1.834143         1.691362         1.397865
 H         4.453058        -0.772002        -0.139976
 H         2.572463        -0.948181         1.987041
 H         3.087943        -2.887234        -0.349180
 H         1.204233        -2.828061        -0.032237
 H         2.572433         0.050050        -2.445682
