19
Iteration:  1900
 C        -0.283596        -0.136557         0.345661
 C         1.314889        -0.077035         0.265104
 C         1.977412         1.293528         0.121552
 O         3.383263         1.034025         0.183329
 C         3.401607        -0.430924         0.023713
 C         2.352603        -1.113462         0.977247
 C         2.026579        -2.182273        -0.165884
 C         2.138923        -0.864407        -0.871739
 O         2.042458        -0.690063        -2.317803
 H        -0.534493         0.305290         1.307276
 H        -0.628021         0.540383        -0.483903
 H        -0.676935        -1.227060         0.132761
 H         1.588247         1.722916        -0.821325
 H         1.761025         2.041627         0.902101
 H         4.425252        -0.846336        -0.093613
 H         2.391395        -1.445329         2.079600
 H         2.528671        -3.189432        -0.441223
 H         0.907989        -2.386857        -0.118975
 H         2.342776         0.261401        -2.577453
