19
Iteration:  2345charge 0 multiplicity 1
 C        -0.194535        -0.196831         0.237090
 C         1.342859        -0.118884         0.216267
 C         1.959959         1.338273         0.257420
 O         3.357750         1.041278        -0.025259
 C         3.321331        -0.474287         0.044252
 C         2.235484        -1.053901         0.963832
 C         2.113430        -2.292357        -0.067416
 C         2.192767        -0.877321        -0.879213
 O         1.957972        -0.563328        -2.238738
 H        -0.486659         0.458566         1.017634
 H        -0.449552         0.309970        -0.713790
 H        -0.741397        -1.086684         0.519942
 H         1.636921         2.082185        -0.500486
 H         1.996548         1.697357         1.259168
 H         4.238457        -0.904773         0.057135
 H         2.442654        -1.251591         2.002427
 H         2.909811        -3.097027        -0.274352
 H         1.120956        -2.699092         0.106839
 H         2.673297         0.097201        -2.445822
