19
Iteration:   801charge 0 multiplicity 1
 C        -0.143647         0.034183         0.564299
 C         1.345864        -0.001902         0.153468
 C         2.044799         1.348496         0.343590
 O         3.403081         0.967676         0.099796
 C         3.279432        -0.451087        -0.066355
 C         2.232987        -1.071334         0.910710
 C         1.799736        -2.201158        -0.152041
 C         2.035418        -0.859403        -1.009255
 O         2.217620        -0.857637        -2.410876
 H        -0.332873        -0.178299         1.559054
 H        -0.424316         1.105920         0.532269
 H        -0.865387        -0.392119        -0.107055
 H         1.709800         2.068684        -0.429977
 H         1.866742         1.783477         1.409733
 H         4.235422        -0.968720        -0.059124
 H         2.351034        -1.230040         2.009028
 H         2.519029        -3.043084        -0.204859
 H         0.820722        -2.643671        -0.028938
 H         3.108697        -0.693589        -2.572578
