19
Iteration:  2266charge 0 multiplicity 1
 C        -0.185282        -0.119876         0.389077
 C         1.387908        -0.064528         0.087983
 C         1.847167         1.282652         0.358411
 O         3.406592         0.985773         0.177408
 C         3.313759        -0.399779         0.036395
 C         2.263931        -0.978084         0.900893
 C         2.099937        -2.102905        -0.225314
 C         2.205336        -0.846597        -0.971569
 O         2.022326        -0.924115        -2.318527
 H        -0.265587         0.085272         1.555001
 H        -0.572835         0.788463        -0.020784
 H        -0.904871        -0.771994        -0.008307
 H         1.697849         2.194193        -0.299079
 H         1.567706         1.685276         1.331466
 H         4.357848        -0.761791        -0.018565
 H         2.168928        -0.931872         2.062634
 H         2.976051        -2.784869        -0.302131
 H         1.058760        -2.606123        -0.344934
 H         1.919607         0.000685        -2.537301
