19
Iteration:   701
 C        -0.083261         0.041524         0.135499
 C         1.364913         0.027520         0.287355
 C         2.144520         1.310017         0.378062
 O         3.443757         0.939650         0.176874
 C         3.419174        -0.427254        -0.082032
 C         2.327001        -1.180627         0.947639
 C         1.844363        -2.184042        -0.127800
 C         2.022747        -0.818408        -0.870972
 O         1.913819        -0.825375        -2.252607
 H        -0.572949         0.719089         0.757212
 H        -0.268776         0.324000        -0.961283
 H        -0.554783        -0.855799         0.299720
 H         1.926027         2.058791        -0.407571
 H         2.006407         1.906872         1.384819
 H         4.258437        -0.935036        -0.514103
 H         2.562609        -1.307184         1.952985
 H         2.613912        -2.879318        -0.535107
 H         0.829958        -2.564722        -0.119786
 H         1.063618        -0.379024        -2.571557
