19
Iteration:  1479
 C        -0.141903        -0.063715         0.371538
 C         1.326997        -0.024381         0.300900
 C         1.986579         1.315644         0.173410
 O         3.398455         0.955713         0.174063
 C         3.290407        -0.506618        -0.049016
 C         2.278572        -1.051940         0.973000
 C         1.895333        -2.205989        -0.169462
 C         2.170708        -0.909745        -0.976315
 O         2.138284        -0.576984        -2.263592
 H        -0.360996         0.946662         0.660515
 H        -0.636544        -0.389107        -0.670977
 H        -0.509154        -0.829617         1.075662
 H         1.699386         1.793394        -0.794590
 H         1.930319         2.066107         1.030469
 H         4.317322        -1.025861        -0.208004
 H         2.373547        -1.301358         2.060809
 H         2.560684        -3.129278        -0.412164
 H         0.814032        -2.514245         0.045005
 H         1.605594        -1.159205        -2.761734
