19
Iteration:  3557charge 0 multiplicity 1
 C        -0.181907        -0.298304         0.393327
 C         1.352569        -0.101707         0.243681
 C         1.928676         1.359066         0.334278
 O         3.382898         1.058834         0.073703
 C         3.322934        -0.402068        -0.062922
 C         2.193622        -1.107001         0.921082
 C         2.016677        -2.191462        -0.164001
 C         2.207392        -0.856530        -0.941796
 O         2.059576        -0.608070        -2.297712
 H        -0.598787         0.717774         0.692339
 H        -0.668455        -0.614648        -0.478364
 H        -0.281240        -1.146733         1.168599
 H         1.420742         2.076092        -0.422761
 H         1.659939         1.817339         1.298029
 H         4.412343        -0.732368        -0.176020
 H         2.167210        -1.265066         1.992990
 H         2.899836        -2.847571        -0.136787
 H         0.978756        -2.725706        -0.306845
 H         2.903685        -0.162615        -2.658286
