19
Iteration:  3869charge 0 multiplicity 1
 C        -0.139615        -0.421453         0.106163
 C         1.308565        -0.086994         0.313401
 C         2.029711         1.333305         0.450870
 O         3.412720         0.977357         0.311953
 C         3.381405        -0.444708         0.016700
 C         2.392670        -1.100887         0.876966
 C         2.028245        -2.147017        -0.330801
 C         2.148795        -0.769373        -0.962720
 O         1.818628        -0.506952        -2.287114
 H        -0.864178         0.330464         0.460254
 H        -0.293236        -0.646075        -0.931675
 H        -0.614657        -1.168546         0.686635
 H         1.648682         2.223425        -0.244289
 H         1.830303         1.678290         1.491499
 H         4.376814        -0.835767        -0.377772
 H         2.567420        -1.367388         1.883699
 H         2.896750        -2.910647        -0.434362
 H         1.056495        -2.528582        -0.150122
 H         1.949139         0.495751        -2.345432
