19
Iteration:  4639
 C        -0.171034        -0.051253         0.467266
 C         1.270111        -0.095439         0.160785
 C         1.841232         1.270467         0.077971
 O         3.264944         1.017747        -0.020738
 C         3.290216        -0.363193        -0.001159
 C         2.284425        -1.031411         0.947991
 C         2.184802        -2.171595         0.008642
 C         2.141904        -0.909351        -0.870930
 O         2.138719        -0.747916        -2.220113
 H        -0.456057         0.215779         1.418750
 H        -0.666351         0.733681        -0.099699
 H        -0.571193        -1.006607         0.176192
 H         1.609855         1.893044        -0.795822
 H         1.511204         1.822747         0.986989
 H         4.402471        -0.710720        -0.339602
 H         2.352759        -1.111065         1.991231
 H         2.943224        -2.979964        -0.215212
 H         1.307497        -2.904292        -0.041602
 H         3.056494        -0.898172        -2.638397
