19
Iteration:  4796charge 0 multiplicity 1
 C        -0.196503        -0.248504         0.421308
 C         1.275502        -0.002786         0.116876
 C         1.934359         1.370622         0.047347
 O         3.328099         1.060135         0.000135
 C         3.360774        -0.428217        -0.011379
 C         2.270139        -0.916366         0.974669
 C         1.997428        -2.103216         0.123615
 C         2.152554        -0.896392        -0.887282
 O         2.139971        -0.891441        -2.282696
 H        -0.535489        -1.112212        -0.093255
 H        -0.157459        -0.338042         1.477752
 H        -0.914214         0.482096         0.180005
 H         1.491025         1.793673        -0.868648
 H         1.565081         2.014712         0.848004
 H         4.336188        -0.626214        -0.225970
 H         2.291674        -0.967574         2.129640
 H         2.887188        -2.932409         0.060796
 H         1.058429        -2.699334         0.227413
 H         3.009976        -0.467222        -2.566331
