19
Iteration:  2011charge 0 multiplicity 1
 C        -0.279372        -0.179129         0.456820
 C         1.279572        -0.093013         0.136825
 C         1.970658         1.250894         0.213053
 O         3.391564         0.947223         0.241194
 C         3.337131        -0.401500         0.007005
 C         2.292455        -1.032883         0.914165
 C         2.071094        -2.115005        -0.124925
 C         2.192687        -0.838323        -0.971154
 O         2.125313        -0.651231        -2.356143
 H        -0.539879         0.411101         1.355925
 H        -0.761247         0.320962        -0.354519
 H        -0.853350        -1.077892         0.358641
 H         1.691333         1.841725        -0.600558
 H         1.820427         1.858850         1.022936
 H         4.289651        -0.780497        -0.299882
 H         2.430599        -1.054439         1.913985
 H         2.965507        -2.809404        -0.245622
 H         1.152737        -2.658836        -0.220674
 H         1.228112        -0.731003        -2.593883
