19
Iteration:  4005
 C        -0.175655        -0.397949         0.229976
 C         1.311043        -0.098978         0.293259
 C         1.961926         1.308957         0.399631
 O         3.411489         1.061965         0.301233
 C         3.401275        -0.430658        -0.070216
 C         2.396775        -1.106407         0.899906
 C         2.006251        -2.142695        -0.264898
 C         2.128391        -0.788453        -0.935404
 O         1.904555        -0.571174        -2.311125
 H        -0.378654        -1.134728         0.925005
 H        -0.695346         0.511067        -0.081397
 H        -0.230116        -0.898035        -0.765703
 H         1.700565         2.179229        -0.332695
 H         1.686115         1.639237         1.354118
 H         4.447713        -0.633069        -0.125070
 H         2.553870        -1.386194         1.991750
 H         2.724681        -2.916541        -0.608647
 H         0.869537        -2.515791        -0.212680
 H         1.957961         0.329225        -2.528209
