19
Iteration:   861
 C        -0.108963         0.004256         0.205141
 C         1.381771         0.005040         0.287617
 C         2.072658         1.330696         0.260341
 O         3.467378         0.899272         0.169130
 C         3.305558        -0.512546        -0.043565
 C         2.338915        -1.125541         0.985800
 C         1.844447        -2.157032        -0.136846
 C         2.023306        -0.832482        -0.871684
 O         1.977723        -0.749756        -2.290198
 H        -0.623114         0.381812         1.168841
 H        -0.199333         0.484328        -0.735872
 H        -0.368659        -1.065593         0.137142
 H         1.782249         1.926203        -0.669020
 H         1.942685         2.025916         1.078971
 H         4.263412        -0.959868        -0.303081
 H         2.497141        -1.406976         2.034122
 H         2.658009        -2.848329        -0.308176
 H         0.823069        -2.549843        -0.019452
 H         1.865612         0.211977        -2.605564
