19
Iteration:  3635charge 0 multiplicity 1
 C        -0.202926        -0.318538         0.318043
 C         1.355210        -0.082238         0.126981
 C         1.955075         1.336152         0.424262
 O         3.364814         0.969897         0.202852
 C         3.396764        -0.433376         0.020753
 C         2.273672        -1.057388         0.891084
 C         2.056137        -2.081345        -0.159729
 C         2.201502        -0.722784        -0.924571
 O         1.963152        -0.705609        -2.362694
 H        -0.685854        -0.253752        -0.669514
 H        -0.232205        -1.275001         0.705079
 H        -0.625872         0.377807         1.078827
 H         1.711538         2.093397        -0.409261
 H         1.690328         1.545697         1.420997
 H         4.334706        -0.797547        -0.200021
 H         2.385424        -1.322154         1.979843
 H         2.764739        -2.805764        -0.462915
 H         0.991121        -2.515655        -0.421833
 H         2.048458         0.187637        -2.747201
