19
Iteration:  2429charge 0 multiplicity 1
 C        -0.219699        -0.263098         0.333384
 C         1.297031        -0.007980         0.106404
 C         2.053348         1.351130         0.358380
 O         3.386242         1.015559         0.222539
 C         3.379764        -0.329715         0.005765
 C         2.270752        -1.011418         0.904026
 C         2.006855        -2.111065        -0.136949
 C         2.137837        -0.824513        -0.963923
 O         2.041043        -0.890674        -2.368313
 H        -0.568239         0.584055         1.141040
 H        -0.896726        -0.256575        -0.493763
 H        -0.379712        -1.245550         0.728079
 H         1.632568         2.061839        -0.372120
 H         1.848517         1.810412         1.410756
 H         4.300703        -0.887255        -0.057568
 H         2.383927        -1.178271         2.005114
 H         2.741573        -2.821610        -0.421348
 H         1.029459        -2.605316        -0.280701
 H         2.019154         0.045092        -2.539490
