19
Iteration:   246charge 0 multiplicity 1
 C        -0.105934         0.237746         0.218069
 C         1.347362        -0.000783         0.154579
 C         2.157303         1.285713         0.362690
 O         3.566693         0.864973         0.084198
 C         3.337420        -0.553331         0.035140
 C         2.170148        -1.056262         0.944185
 C         1.906760        -2.156469        -0.207971
 C         2.075603        -0.818991        -0.895364
 O         1.829575        -0.798844        -2.198040
 H        -0.345283         1.168602         0.754561
 H        -0.496824         0.361443        -0.837803
 H        -0.644284        -0.627239         0.716236
 H         1.841247         2.080771        -0.221573
 H         2.088769         1.507652         1.421044
 H         4.284825        -1.193435        -0.160453
 H         2.083537        -1.345885         2.080099
 H         2.824993        -2.816514        -0.316524
 H         0.933858        -2.730788        -0.407808
 H         2.476317        -1.565242        -2.465180
