19
Iteration:   964
 C        -0.147735         0.064526         0.520359
 C         1.376249         0.040529         0.166450
 C         1.985169         1.298195         0.408301
 O         3.391442         0.931419         0.191224
 C         3.337775        -0.476325        -0.059274
 C         2.244095        -1.139180         0.883390
 C         1.776506        -2.108969        -0.210635
 C         2.105457        -0.881553        -1.020969
 O         2.171159        -0.847164        -2.432442
 H        -0.575872         0.652131        -0.247824
 H        -0.668545        -1.007709         0.686839
 H        -0.166593         0.479927         1.509655
 H         1.693383         2.163191        -0.210127
 H         1.940906         1.542894         1.465265
 H         4.449296        -0.768068        -0.065757
 H         2.509390        -1.217378         1.974988
 H         2.263086        -3.095849        -0.403867
 H         0.697586        -2.357403        -0.289619
 H         2.780303        -0.167062        -2.744208
