19
Iteration:   424charge 0 multiplicity 1
 C        -0.152243         0.068210         0.269585
 C         1.358572         0.024362         0.138320
 C         2.191234         1.372396         0.247197
 O         3.544116         0.844875         0.117166
 C         3.269056        -0.607713        -0.019907
 C         2.241448        -1.102562         0.976534
 C         1.801991        -2.136151        -0.029504
 C         2.075455        -0.880640        -0.880076
 O         1.936011        -0.671102        -2.322474
 H        -0.359229         0.751023         1.135704
 H        -0.641990         0.330404        -0.626691
 H        -0.656902        -0.953487         0.488327
 H         1.940280         2.132041        -0.436530
 H         1.980976         1.700398         1.281436
 H         4.123485        -1.159120        -0.191106
 H         2.346476        -1.253709         2.014658
 H         2.503896        -3.005750        -0.274349
 H         0.804311        -2.540820         0.187152
 H         2.903864        -0.490385        -2.646371
