19
Iteration:  3930
 C        -0.216359        -0.110870         0.519982
 C         1.292222        -0.178680         0.328827
 C         1.847061         1.152410         0.429637
 O         3.262272         1.001420         0.204838
 C         3.294651        -0.397229        -0.019654
 C         2.354746        -1.241767         0.859923
 C         2.112570        -2.129522        -0.386648
 C         2.122162        -0.763765        -0.960499
 O         2.197148        -0.526937        -2.449086
 H        -0.383570         0.753353         1.209794
 H        -0.775948        -0.065777        -0.459319
 H        -0.473916        -1.109727         0.963619
 H         1.346157         1.837305        -0.376789
 H         1.718120         1.579628         1.455546
 H         4.232357        -0.702576        -0.481593
 H         2.458138        -1.489411         1.931935
 H         2.920519        -2.791110        -0.587095
 H         1.216781        -2.743469        -0.411126
 H         2.758558         0.322807        -2.521819
