19
Iteration:   178
 C        -0.147153         0.013789         0.213801
 C         1.401667         0.050738         0.317940
 C         2.136824         1.361330         0.118701
 O         3.557356         0.814974         0.080603
 C         3.422378        -0.613627         0.075757
 C         2.249023        -1.120470         1.005140
 C         1.741058        -2.137520        -0.116175
 C         2.084365        -0.847333        -0.847264
 O         1.857030        -0.599582        -2.258218
 H        -0.690497         0.217911         1.168960
 H        -0.437046         0.908542        -0.503739
 H        -0.521280        -0.875213        -0.197441
 H         1.909705         1.800256        -0.791716
 H         2.139087         2.051423         0.969583
 H         4.460463        -1.101617        -0.228384
 H         2.235875        -1.322096         2.102401
 H         2.458372        -2.946412        -0.086777
 H         0.697149        -2.461915         0.014852
 H         2.513722        -1.051576        -2.738582
