19
Iteration:   773charge 0 multiplicity 1
 C        -0.253658         0.001483         0.440774
 C         1.364526        -0.000902         0.333299
 C         2.084675         1.278069         0.197473
 O         3.422866         0.874666         0.081490
 C         3.353834        -0.499806        -0.073890
 C         2.294442        -1.067486         0.990577
 C         1.826147        -2.148058        -0.184750
 C         2.139316        -0.808594        -0.934396
 O         2.083817        -0.748069        -2.312254
 H        -0.727607        -0.269615         1.495440
 H        -0.781274         0.962667         0.236860
 H        -0.691541        -0.597981        -0.472793
 H         1.681658         1.787135        -0.704412
 H         2.000737         1.991148         0.958359
 H         4.364260        -1.027994         0.015631
 H         2.424177        -1.240485         2.120079
 H         2.466476        -3.020573        -0.369495
 H         0.720912        -2.367613        -0.079089
 H         2.782616        -0.157500        -2.661911
