19
Iteration:  2426charge 0 multiplicity 1
 C        -0.201414        -0.265726         0.365761
 C         1.322136        -0.038525         0.102188
 C         2.016653         1.336640         0.355677
 O         3.404087         1.031496         0.218349
 C         3.358375        -0.348668         0.037726
 C         2.292868        -0.995970         0.899684
 C         1.977171        -2.106947        -0.160900
 C         2.120326        -0.794905        -0.985988
 O         2.047213        -0.894916        -2.360046
 H        -0.534212         0.597262         1.008090
 H        -0.871186        -0.230253        -0.557089
 H        -0.379535        -1.311178         0.749866
 H         1.652409         2.132992        -0.337426
 H         1.804452         1.834294         1.343375
 H         4.368769        -1.000879        -0.017654
 H         2.376887        -1.088885         2.014735
 H         2.771062        -2.823001        -0.373038
 H         0.979258        -2.624019        -0.278316
 H         2.036053         0.042702        -2.581412
