19
Iteration:  1201
 C        -0.138971        -0.007501         0.287681
 C         1.369842        -0.047376         0.217263
 C         2.082190         1.324579         0.287601
 O         3.460913         0.879793         0.094921
 C         3.319399        -0.523804        -0.004765
 C         2.287194        -1.081245         0.955730
 C         1.785485        -2.181737        -0.105943
 C         2.121805        -0.903907        -0.920164
 O         2.026773        -0.663291        -2.280705
 H        -0.515604         1.071511         0.170634
 H        -0.551251        -0.437701        -0.673392
 H        -0.522774        -0.633992         1.086973
 H         1.757992         1.892292        -0.592324
 H         2.026367         1.977515         1.220403
 H         4.380827        -0.883179        -0.282747
 H         2.596763        -1.157730         2.036076
 H         2.579243        -2.966824        -0.227846
 H         0.725372        -2.390499         0.149178
 H         1.854570         0.254327        -2.446375
