19
Iteration:  1104charge 0 multiplicity 1
 C        -0.181784         0.131000         0.261056
 C         1.352185         0.020499         0.146782
 C         2.110080         1.295355         0.394464
 O         3.490301         0.892742         0.260739
 C         3.366949        -0.466799         0.038425
 C         2.290468        -1.123007         0.898246
 C         1.920665        -2.189813        -0.195804
 C         2.179875        -0.897511        -1.006927
 O         1.851808        -0.685780        -2.333757
 H        -0.525778         0.381955        -0.763910
 H        -0.664387        -0.886883         0.632438
 H        -0.421844         0.828206         1.020445
 H         1.742668         2.166126        -0.248524
 H         1.931111         1.409149         1.485450
 H         4.413816        -0.856940        -0.140135
 H         2.200784        -1.274751         1.996236
 H         2.748494        -2.969185        -0.357550
 H         0.927087        -2.697909        -0.044061
 H         1.770170        -1.495200        -2.771086
