19
Iteration:  3226
 C        -0.155055        -0.182357         0.396874
 C         1.280427        -0.069892         0.196114
 C         1.916402         1.292985         0.275910
 O         3.268775         0.965409         0.190325
 C         3.315342        -0.387317        -0.036413
 C         2.295176        -1.027688         0.915577
 C         2.118621        -2.160777        -0.131378
 C         2.133965        -0.906651        -0.984544
 O         2.098013        -0.663742        -2.366329
 H        -0.554883         0.575712         1.056899
 H        -0.691223        -0.021218        -0.505544
 H        -0.564556        -1.074304         0.857357
 H         1.643077         2.045108        -0.421817
 H         1.656004         1.845280         1.260788
 H         4.252375        -0.841622        -0.185649
 H         2.600706        -1.212177         1.998450
 H         2.916768        -2.915733        -0.195797
 H         1.264290        -2.684769         0.029229
 H         2.799306        -0.095671        -2.592589
