19
Iteration:  3629
 C        -0.215988        -0.270717         0.354731
 C         1.341207        -0.096805         0.136951
 C         1.901653         1.334546         0.360783
 O         3.392261         1.005352         0.184166
 C         3.407043        -0.431203         0.053186
 C         2.266710        -1.073786         0.902729
 C         2.052761        -2.103905        -0.210684
 C         2.190093        -0.774419        -0.932376
 O         1.986778        -0.684385        -2.356280
 H        -0.729150        -0.050058        -0.611657
 H        -0.532699        -1.403981         0.745859
 H        -0.488467         0.287677         1.251324
 H         1.665537         2.043970        -0.386680
 H         1.784811         1.614923         1.475005
 H         4.467492        -0.873960        -0.114309
 H         2.303907        -1.403556         1.929952
 H         2.893302        -2.833119        -0.502556
 H         1.141795        -2.647546        -0.285743
 H         2.160922         0.277144        -2.657008
