19
Iteration:  1568charge 0 multiplicity 1
 C        -0.136511        -0.022444         0.187855
 C         1.336679        -0.084025         0.221664
 C         2.022498         1.263320         0.319720
 O         3.369816         0.997912         0.127873
 C         3.375606        -0.438244        -0.023667
 C         2.358906        -1.047255         0.967447
 C         1.946142        -2.209528        -0.113930
 C         2.137233        -0.917574        -0.875022
 O         1.909138        -0.680960        -2.270691
 H        -0.499594         0.383275         1.044974
 H        -0.517913         0.553866        -0.705003
 H        -0.699286        -0.981088         0.042060
 H         1.648621         1.928908        -0.416390
 H         1.910574         1.604034         1.374156
 H         4.428118        -0.828904        -0.291603
 H         2.487585        -1.115708         2.049746
 H         2.817070        -2.930805        -0.117832
 H         0.909138        -2.635469         0.005051
 H         2.615090        -0.432693        -2.829396
