19
Iteration:  4143
 C        -0.231685        -0.266830         0.498572
 C         1.255698        -0.119091         0.212954
 C         1.934362         1.286562         0.268058
 O         3.353929         1.037665         0.171394
 C         3.327214        -0.367864        -0.028122
 C         2.272731        -1.109598         0.908478
 C         2.049750        -2.185227        -0.216575
 C         2.143907        -0.798646        -1.004388
 O         2.163559        -0.626103        -2.348041
 H        -0.689771        -0.548978        -0.477486
 H        -0.568005        -1.079877         1.066094
 H        -0.593199         0.536079         1.101469
 H         1.436328         2.029030        -0.493102
 H         1.789811         1.714010         1.311421
 H         4.341878        -0.646547        -0.232943
 H         2.324070        -1.351844         2.048843
 H         2.886648        -2.822941        -0.340680
 H         1.171187        -2.772627        -0.177786
 H         2.652813         0.237876        -2.575782
