19
Iteration:   943
 C        -0.196200         0.016803         0.352734
 C         1.322550        -0.041750         0.224414
 C         2.071574         1.309476         0.409049
 O         3.506028         0.974783         0.197117
 C         3.338753        -0.499432        -0.088934
 C         2.277787        -1.105540         0.876260
 C         1.823949        -2.120739        -0.201960
 C         2.104419        -0.801108        -0.896543
 O         2.035394        -0.837194        -2.349474
 H        -0.453907         0.885635        -0.170903
 H        -0.745285        -0.837732        -0.292392
 H        -0.618820        -0.107664         1.380469
 H         1.848829         1.969802        -0.402194
 H         1.897796         1.734631         1.409200
 H         4.410296        -0.817923        -0.284208
 H         2.483668        -1.423057         1.967423
 H         2.396120        -3.024512        -0.478164
 H         0.782651        -2.415173         0.044618
 H         2.479478        -0.115078        -2.758852
