19
Iteration:  4682
 C        -0.172048        -0.245764         0.326526
 C         1.334919        -0.045788         0.170218
 C         1.873691         1.357269         0.117174
 O         3.381024         1.028495         0.055750
 C         3.355221        -0.351921        -0.018890
 C         2.322420        -0.942578         0.977762
 C         2.012611        -2.103904        -0.006254
 C         2.195775        -0.856016        -0.845689
 O         2.027778        -0.911408        -2.282689
 H        -0.353792        -0.874932         1.204694
 H        -0.794635         0.682809         0.334849
 H        -0.567296        -0.940202        -0.430593
 H         1.533111         1.902860        -0.719695
 H         1.853226         2.030108         0.986089
 H         4.506323        -0.686378         0.039137
 H         2.290590        -0.992375         2.022772
 H         2.748023        -2.989645        -0.029669
 H         1.000161        -2.643348         0.235736
 H         2.228226         0.046894        -2.590552
