19
Iteration:  4942
 C        -0.261460        -0.332008         0.260745
 C         1.325576        -0.051490         0.185118
 C         1.951859         1.340672         0.134453
 O         3.381979         1.075468         0.047404
 C         3.416992        -0.353414        -0.023031
 C         2.320600        -0.896478         1.001730
 C         2.028951        -2.087149         0.073708
 C         2.157843        -0.882206        -0.882302
 O         2.007405        -0.890333        -2.260134
 H        -0.469406        -1.071491         1.062400
 H        -0.911490         0.518932         0.490804
 H        -0.558601        -0.633648        -0.756528
 H         1.696751         1.852249        -0.775476
 H         1.795497         1.943524         1.041570
 H         4.508011        -0.799518        -0.061885
 H         2.469062        -0.858021         2.006759
 H         2.635184        -2.965921        -0.056226
 H         1.083735        -2.632980         0.133479
 H         2.291640        -0.023202        -2.610076
