19
Iteration:   838
 C        -0.298835         0.030657         0.417180
 C         1.288824        -0.019804         0.173496
 C         2.128591         1.340529         0.317225
 O         3.503313         0.914466         0.117037
 C         3.325217        -0.511639        -0.027263
 C         2.195084        -1.058795         0.873025
 C         1.921033        -2.132178        -0.139709
 C         2.157721        -0.836386        -0.949610
 O         2.045397        -0.849721        -2.325860
 H        -0.391181         0.019577         1.547777
 H        -0.664609         0.848049        -0.078161
 H        -0.798032        -0.951686         0.105838
 H         1.817599         2.199796        -0.332949
 H         2.141401         1.722665         1.356684
 H         4.321066        -1.040770         0.012446
 H         2.242827        -1.033779         2.010363
 H         2.703969        -2.847121        -0.290163
 H         0.879257        -2.498233        -0.227029
 H         2.413091        -0.064788        -2.666296
