19
Iteration:  3233charge 0 multiplicity 1
 C        -0.197175        -0.106428         0.448215
 C         1.237086        -0.102712         0.216559
 C         1.843075         1.269238         0.287536
 O         3.282203         0.976769         0.168859
 C         3.320124        -0.423536        -0.027534
 C         2.342953        -1.063060         0.902294
 C         2.171568        -2.144811        -0.135435
 C         2.152537        -0.906255        -0.958187
 O         2.125417        -0.680680        -2.385354
 H        -0.599624         0.745949         0.986739
 H        -0.645186         0.106345        -0.612885
 H        -0.614968        -1.002319         0.812463
 H         1.564945         2.041508        -0.509356
 H         1.613294         1.814519         1.331902
 H         4.328467        -0.934539        -0.247640
 H         2.637741        -1.131926         1.997780
 H         2.956293        -2.860313        -0.336510
 H         1.051050        -2.618799        -0.085950
 H         2.795351        -0.023883        -2.599699
