19
Iteration:  1626
 C        -0.152254        -0.205058         0.184594
 C         1.350075        -0.064283         0.223816
 C         2.011878         1.330182         0.157551
 O         3.466274         0.960314         0.193325
 C         3.381016        -0.438901         0.037471
 C         2.307688        -1.097467         0.949940
 C         1.899988        -2.110560        -0.109297
 C         2.149560        -0.830985        -0.829226
 O         1.956003        -0.588386        -2.270991
 H        -0.474449        -0.432630         1.271261
 H        -0.496898         0.786533        -0.104706
 H        -0.398037        -1.097829        -0.471673
 H         1.779730         1.880483        -0.811648
 H         1.827329         2.061245         0.993179
 H         4.313983        -0.846537        -0.213414
 H         2.433677        -1.246333         2.025202
 H         2.613311        -2.940833        -0.104843
 H         0.886904        -2.519142        -0.079443
 H         1.442292        -1.433049        -2.557515
