19
Iteration:  4681charge 0 multiplicity 1
 C        -0.175991        -0.238007         0.338475
 C         1.328925        -0.043058         0.170447
 C         1.870962         1.353752         0.108048
 O         3.377118         1.024627         0.056254
 C         3.361155        -0.341391        -0.015402
 C         2.323515        -0.952063         0.981996
 C         2.016971        -2.112893        -0.003975
 C         2.199850        -0.857000        -0.854871
 O         2.029443        -0.905505        -2.287190
 H        -0.376446        -0.904541         1.225220
 H        -0.791331         0.708966         0.295784
 H        -0.573542        -0.947821        -0.429784
 H         1.536861         1.909578        -0.720367
 H         1.863808         2.015176         0.985521
 H         4.489284        -0.703869         0.038424
 H         2.303434        -0.994058         2.018495
 H         2.747443        -2.972216        -0.014897
 H         0.989899        -2.613358         0.258803
 H         2.256756         0.028962        -2.587109
