19
Iteration:  1196
 C        -0.123026        -0.017807         0.315118
 C         1.425239        -0.024058         0.183826
 C         2.066650         1.296095         0.267769
 O         3.453475         0.880509         0.068225
 C         3.314705        -0.539420        -0.006492
 C         2.224442        -1.050934         0.955088
 C         1.759987        -2.189634        -0.096687
 C         2.131364        -0.889883        -0.912035
 O         2.080443        -0.633875        -2.286799
 H        -0.582806         0.961690         0.321262
 H        -0.704391        -0.549649        -0.451661
 H        -0.398317        -0.670441         1.194027
 H         1.631103         1.886048        -0.571610
 H         2.117591         1.823376         1.197937
 H         4.298250        -0.983529        -0.091904
 H         2.569788        -1.077199         1.971470
 H         2.467947        -2.982955        -0.233915
 H         0.764647        -2.523883         0.176019
 H         1.762522         0.300226        -2.421716
