19
Iteration:  2529charge 0 multiplicity 1
 C        -0.187149        -0.348604         0.302811
 C         1.272689        -0.010990         0.136561
 C         1.961743         1.405740         0.220560
 O         3.398014         0.971786         0.155307
 C         3.379238        -0.445564         0.002455
 C         2.261498        -1.028025         0.980824
 C         1.994251        -2.133050        -0.073094
 C         2.162426        -0.805278        -0.960339
 O         1.994742        -0.653270        -2.295497
 H        -0.316195        -0.277411         1.464544
 H        -0.842038         0.395373        -0.109853
 H        -0.510583        -1.350661         0.097391
 H         1.843497         1.963161        -0.692837
 H         1.784327         1.995456         1.171496
 H         4.313491        -0.885196         0.046166
 H         2.536785        -1.097199         2.023288
 H         2.802914        -2.845948        -0.271114
 H         1.065622        -2.658552        -0.074203
 H         2.948993        -0.790614        -2.655584
