19
Iteration:  4016
 C        -0.149728        -0.380162         0.109522
 C         1.390416        -0.151985         0.252689
 C         1.961780         1.308128         0.397433
 O         3.385296         1.035726         0.299461
 C         3.401960        -0.381971         0.007113
 C         2.440688        -1.180861         0.904108
 C         2.047711        -2.093942        -0.210154
 C         2.114774        -0.756170        -0.932112
 O         1.825284        -0.572352        -2.315370
 H        -0.722118        -0.907351         0.824669
 H        -0.706635         0.532362         0.402171
 H        -0.462397        -0.785449        -0.865557
 H         1.594440         2.012923        -0.425705
 H         1.815145         1.760758         1.331290
 H         4.372755        -0.828761        -0.178855
 H         2.555511        -1.324453         2.002990
 H         2.797896        -2.832389        -0.577228
 H         0.999017        -2.629493        -0.098051
 H         1.950550         0.382428        -2.421871
