19
Iteration:  4353charge 0 multiplicity 1
 C        -0.184533        -0.368443         0.152751
 C         1.391695        -0.074024         0.229111
 C         1.981686         1.348805         0.364138
 O         3.336460         1.025479         0.152574
 C         3.353293        -0.383133        -0.062258
 C         2.354936        -1.019988         0.956264
 C         2.024775        -2.093393        -0.076214
 C         2.183425        -0.817441        -0.922776
 O         1.876979        -0.721082        -2.291423
 H        -0.593007        -0.790844         1.101467
 H        -0.723722         0.540528         0.265468
 H        -0.292188        -1.009567        -0.692285
 H         1.638474         1.990205        -0.481913
 H         1.819581         1.796061         1.285558
 H         4.424639        -0.723490        -0.055388
 H         2.596120        -1.127884         2.044105
 H         2.847675        -2.739678        -0.138164
 H         0.995226        -2.525873        -0.091705
 H         2.655282        -0.238299        -2.631380
