19
Iteration:  3468charge 0 multiplicity 1
 C        -0.315784        -0.049570         0.254752
 C         1.314441        -0.129683         0.187694
 C         1.956807         1.263278         0.241372
 O         3.345451         1.041532         0.166391
 C         3.380744        -0.334018         0.001496
 C         2.306892        -1.103949         0.929756
 C         2.213959        -2.200618        -0.148793
 C         2.183740        -0.854968        -0.900778
 O         1.995765        -0.764069        -2.249989
 H        -0.527336        -0.407441         1.335552
 H        -0.779542         0.906536         0.197202
 H        -0.832353        -0.793032        -0.530024
 H         1.663955         1.979276        -0.532743
 H         1.782902         1.631688         1.167324
 H         4.497705        -0.743982        -0.155281
 H         2.350792        -1.288561         1.984119
 H         3.109929        -2.934422        -0.326623
 H         1.309817        -2.813752         0.012261
 H         1.532291         0.085162        -2.523162
