19
Iteration:  2027charge 0 multiplicity 1
 C        -0.167471        -0.102079         0.456043
 C         1.274071        -0.102900         0.134588
 C         1.904454         1.291994         0.154262
 O         3.312317         0.962056         0.197752
 C         3.348429        -0.448502        -0.066508
 C         2.252401        -1.057540         0.905237
 C         2.098644        -2.233176        -0.056031
 C         2.138796        -0.877573        -0.987240
 O         2.203248        -0.567757        -2.339618
 H        -0.151186         0.100699         1.560499
 H        -0.942952         0.613770         0.017438
 H        -0.555435        -1.166556         0.423156
 H         1.750482         1.929216        -0.807818
 H         1.497918         1.816784         1.140086
 H         4.350015        -1.009586         0.033183
 H         2.275698        -1.114406         2.115672
 H         2.937097        -2.931246        -0.099409
 H         1.117936        -2.792171         0.069302
 H         1.342691        -0.246718        -2.598919
