19
Iteration:  3519charge 0 multiplicity 1
 C        -0.233036        -0.296735         0.173572
 C         1.354588        -0.093854         0.185329
 C         1.938098         1.331020         0.403119
 O         3.439850         1.056662         0.225240
 C         3.372996        -0.351415        -0.096772
 C         2.378749        -1.020995         0.929730
 C         2.049302        -2.134506        -0.100945
 C         2.136581        -0.838592        -0.937345
 O         1.909152        -0.769583        -2.278708
 H        -0.761825         0.094845         1.000818
 H        -0.627731         0.153472        -0.808677
 H        -0.586828        -1.293389         0.123068
 H         1.751379         2.038150        -0.439438
 H         1.782899         1.714845         1.534919
 H         4.343893        -0.787066        -0.265479
 H         2.492589        -1.064988         2.038920
 H         2.817406        -2.911833        -0.202563
 H         1.126525        -2.625339        -0.164097
 H         2.164841         0.097101        -2.562100
