19
Iteration:  1587charge 0 multiplicity 1
 C        -0.110735        -0.111398         0.112685
 C         1.334250        -0.055054         0.184893
 C         2.004318         1.346049         0.270517
 O         3.479141         0.915630         0.114228
 C         3.330296        -0.435816        -0.005602
 C         2.265909        -1.113504         0.976566
 C         2.103447        -2.230952         0.042544
 C         2.094693        -0.822285        -0.940599
 O         1.807599        -0.553304        -2.226404
 H        -0.634020        -0.032007         1.129603
 H        -0.441956         0.725855        -0.486697
 H        -0.604673        -0.991535        -0.211842
 H         1.761367         1.872653        -0.656068
 H         1.965852         1.687584         1.296845
 H         4.317621        -1.020368        -0.008774
 H         2.233720        -1.170279         2.103352
 H         3.025243        -2.864508        -0.004528
 H         1.145351        -2.728124        -0.181313
 H         2.426223        -1.044813        -2.798057
