19
Iteration:  4208
 C        -0.146235        -0.305848         0.086559
 C         1.341664        -0.120059         0.240648
 C         1.989280         1.348708         0.415318
 O         3.341021         0.997321         0.176938
 C         3.339611        -0.368651         0.017628
 C         2.393906        -1.061519         0.923298
 C         2.132679        -2.157044        -0.175248
 C         2.163346        -0.783933        -0.881117
 O         1.801923        -0.689995        -2.252599
 H        -0.664907         0.647733        -0.477001
 H        -0.414488        -1.021865        -0.741845
 H        -0.741222        -0.558230         0.989093
 H         1.797452         2.287629        -0.167485
 H         1.895500         1.667902         1.448496
 H         4.313697        -0.749929        -0.167484
 H         2.570302        -1.171432         2.084712
 H         3.006338        -2.769860        -0.409170
 H         1.251493        -2.717885        -0.010417
 H         2.174343        -0.004054        -2.780139
