19
Iteration:  3183charge 0 multiplicity 1
 C        -0.153815        -0.341331         0.188028
 C         1.320541        -0.089678         0.246570
 C         2.002966         1.340675         0.268446
 O         3.331355         0.991554         0.111871
 C         3.366017        -0.415094         0.043361
 C         2.354716        -1.023363         0.964807
 C         2.001529        -2.102598        -0.128351
 C         2.197865        -0.818825        -0.889796
 O         1.922951        -0.654041        -2.258352
 H        -0.730098        -0.045674         1.132103
 H        -0.692809         0.192572        -0.597883
 H        -0.367357        -1.496555         0.084751
 H         1.535755         1.977399        -0.497723
 H         1.850441         1.970873         1.060375
 H         4.354519        -0.731732         0.139176
 H         2.383023        -1.114824         2.096814
 H         2.862707        -2.787235        -0.336819
 H         1.113445        -2.574393        -0.197811
 H         2.593966        -0.237332        -2.776292
