19
Iteration:  4802
 C        -0.137486        -0.289389         0.436439
 C         1.322466        -0.002117         0.101195
 C         1.941330         1.380235         0.017112
 O         3.305382         1.093498        -0.006292
 C         3.314813        -0.454146         0.011408
 C         2.257206        -0.902936         0.982101
 C         1.945353        -2.123367         0.154899
 C         2.129812        -0.897032        -0.903612
 O         2.174706        -0.871151        -2.290140
 H        -0.564758        -1.229636        -0.018552
 H        -0.194759        -0.482960         1.561228
 H        -0.909748         0.540441         0.224209
 H         1.620234         2.015385        -0.868626
 H         1.609550         1.919744         0.945400
 H         4.452463        -0.724056        -0.209157
 H         2.376840        -0.841037         2.041562
 H         2.691701        -2.843976         0.070230
 H         1.093969        -2.808954         0.159874
 H         2.913507        -0.487783        -2.688054
