19
Iteration:   294charge 0 multiplicity 1
 C        -0.112957         0.038050         0.412174
 C         1.345008         0.009080         0.148192
 C         2.170365         1.302287         0.175569
 O         3.516382         0.768562         0.097741
 C         3.345732        -0.608585        -0.047097
 C         2.159417        -1.009463         1.009246
 C         1.663882        -2.082442        -0.023201
 C         2.088577        -0.904238        -0.921170
 O         2.143075        -0.584097        -2.339897
 H        -0.354031         0.678267         1.288611
 H        -0.683289         0.475990        -0.373818
 H        -0.462287        -0.994794         0.648567
 H         1.860002         1.907121        -0.744400
 H         1.988819         1.909103         1.045836
 H         4.252876        -1.071219        -0.172886
 H         2.033080        -0.937550         2.046866
 H         2.277537        -3.030577        -0.187957
 H         0.630486        -2.322551         0.172740
 H         2.050738        -1.353796        -2.820871
