19
Iteration:  1064
 C        -0.183556        -0.079869        -0.011310
 C         1.355568        -0.016245         0.222541
 C         2.180909         1.326276         0.396851
 O         3.539697         0.842341         0.189444
 C         3.427142        -0.492819        -0.033285
 C         2.298920        -1.108722         0.931413
 C         1.896372        -2.177348        -0.113239
 C         2.084700        -0.816048        -0.855677
 O         1.706470        -0.571735        -2.183439
 H        -0.405304        -0.339850        -0.997737
 H        -0.670255        -0.887634         0.645063
 H        -0.655385         0.927344         0.141008
 H         2.155561         2.168150        -0.329235
 H         2.189066         1.698687         1.418577
 H         4.300254        -1.094038        -0.062889
 H         2.440613        -1.327851         2.018013
 H         2.645774        -2.877274        -0.431200
 H         0.862452        -2.512565        -0.022560
 H         2.524674        -0.557940        -2.836625
