19
Iteration:  3243
 C        -0.317156        -0.025328         0.444460
 C         1.301600        -0.163130         0.238364
 C         1.824747         1.243290         0.310195
 O         3.311881         1.030649         0.131658
 C         3.313598        -0.413747        -0.053941
 C         2.386690        -1.107383         0.933990
 C         2.135645        -2.198394        -0.161566
 C         2.181123        -0.814096        -0.957270
 O         2.151743        -0.722511        -2.362872
 H        -0.492084         0.837969         1.133847
 H        -0.761359         0.127963        -0.608467
 H        -0.747968        -0.967594         0.828476
 H         1.409562         1.807882        -0.581482
 H         1.663434         1.707213         1.276350
 H         4.405156        -0.716611        -0.170973
 H         2.438917        -1.203347         2.021529
 H         2.988344        -2.836683        -0.398807
 H         1.117001        -2.821793        -0.251642
 H         2.700757         0.024858        -2.525996
