19
Iteration:   862
 C        -0.101222        -0.002557         0.199538
 C         1.385106        -0.005942         0.293953
 C         2.068485         1.334309         0.250195
 O         3.462463         0.897994         0.173335
 C         3.305222        -0.523157        -0.046792
 C         2.343316        -1.134186         0.977986
 C         1.839953        -2.151697        -0.123407
 C         2.031372        -0.825659        -0.868195
 O         1.969198        -0.739207        -2.285362
 H        -0.611120         0.416341         1.147244
 H        -0.182208         0.482594        -0.811995
 H        -0.356973        -1.036948         0.134141
 H         1.767676         1.939140        -0.648810
 H         1.963236         2.012872         1.055843
 H         4.251967        -0.945508        -0.272190
 H         2.498287        -1.367055         1.993326
 H         2.678960        -2.838763        -0.301041
 H         0.823314        -2.535763        -0.030949
 H         1.848030         0.179090        -2.589149
