19
Iteration:  2385
 C        -0.251042        -0.182130         0.361818
 C         1.266670        -0.123639         0.225956
 C         1.980506         1.352495         0.250198
 O         3.378903         1.034254         0.115101
 C         3.302688        -0.416515        -0.011105
 C         2.375235        -1.094551         0.907932
 C         2.012347        -2.201325        -0.166393
 C         2.121858        -0.871028        -0.915968
 O         2.102572        -0.684865        -2.271062
 H        -0.560393         0.829706         0.914003
 H        -0.682748        -0.253072        -0.608287
 H        -0.783004        -0.942271         0.902803
 H         1.650864         1.918423        -0.642072
 H         1.695563         1.914558         1.229172
 H         4.354928        -0.766064        -0.146200
 H         2.587171        -1.122558         2.019055
 H         2.765755        -2.949367        -0.240725
 H         0.990482        -2.664051        -0.054911
 H         2.634088         0.029785        -2.631564
