19
Iteration:   704charge 0 multiplicity 1
 C        -0.090991         0.032855         0.119355
 C         1.340328         0.014845         0.300489
 C         2.146831         1.320771         0.375863
 O         3.484066         0.939050         0.169902
 C         3.407878        -0.439100        -0.073766
 C         2.331473        -1.180875         0.969221
 C         1.860516        -2.171769        -0.111601
 C         2.027901        -0.802521        -0.871124
 O         1.884358        -0.806997        -2.280742
 H        -0.559831         0.767510         0.766247
 H        -0.334104         0.333583        -0.875299
 H        -0.498467        -1.057708         0.140847
 H         1.956286         2.032331        -0.431915
 H         1.928490         1.831313         1.287335
 H         4.268742        -0.926982        -0.441714
 H         2.509864        -1.368969         2.037785
 H         2.554365        -2.918363        -0.497651
 H         0.895690        -2.589539        -0.030616
 H         1.156177        -0.362941        -2.597245
