19
Iteration:  2458
 C        -0.168364        -0.143733         0.227532
 C         1.319598        -0.101160         0.224327
 C         1.949707         1.314963         0.353698
 O         3.375508         1.014881         0.134758
 C         3.328462        -0.380928        -0.003579
 C         2.317838        -1.015361         0.924083
 C         2.091002        -2.163286        -0.079793
 C         2.106597        -0.845717        -0.901449
 O         1.994642        -0.796777        -2.331088
 H        -0.578349         0.256923         1.107290
 H        -0.436019         0.531615        -0.643972
 H        -0.762511        -1.094504         0.102077
 H         1.444720         1.811506        -0.479033
 H         1.849375         1.697088         1.345524
 H         4.338714        -1.015452        -0.059394
 H         2.545680        -1.084782         2.005650
 H         2.991567        -2.779741        -0.325750
 H         1.185290        -2.819845        -0.211425
 H         2.213840         0.175423        -2.559713
