19
Iteration:   451
 C        -0.156064         0.141361         0.417831
 C         1.356009        -0.080474         0.226438
 C         2.148909         1.227426         0.061818
 O         3.443631         0.856429         0.122537
 C         3.312491        -0.588557        -0.037666
 C         2.253074        -1.106379         0.945514
 C         1.733743        -2.176416        -0.048543
 C         2.195214        -0.941720        -0.893186
 O         2.061148        -0.468701        -2.245740
 H        -0.386131         0.938545         1.116096
 H        -0.639142         0.326160        -0.646194
 H        -0.676492        -0.745995         0.641601
 H         1.798426         1.678541        -0.932975
 H         1.841091         1.954314         0.821445
 H         4.401707        -1.058646        -0.094437
 H         2.369198        -1.155468         2.073239
 H         2.258636        -3.102758        -0.132170
 H         0.641002        -2.347856         0.039319
 H         2.256078        -1.242545        -2.900185
