19
Iteration:  2574charge 0 multiplicity 1
 C        -0.214763        -0.048728         0.331907
 C         1.274261        -0.077400         0.240888
 C         1.930247         1.272068         0.293996
 O         3.262469         1.009608         0.172563
 C         3.248948        -0.417156         0.028665
 C         2.385390        -1.071568         0.908823
 C         2.130406        -2.154306        -0.165503
 C         2.225130        -0.883322        -0.985727
 O         2.045315        -0.676570        -2.333170
 H        -0.337985         0.485959         1.327121
 H        -0.659966         0.372730        -0.576504
 H        -0.593256        -1.088130         0.562740
 H         1.611038         1.861334        -0.565229
 H         1.878876         1.770050         1.297620
 H         4.265592        -0.730327        -0.088937
 H         2.448435        -1.177169         1.989811
 H         2.967317        -2.882649        -0.363138
 H         1.208635        -2.715969        -0.103848
 H         2.579180        -1.503487        -2.671882
