19
Iteration:  1086charge 0 multiplicity 1
 C        -0.143416         0.016200         0.097191
 C         1.353313        -0.040067         0.155759
 C         2.209867         1.326335         0.509927
 O         3.544233         0.860057         0.220765
 C         3.360369        -0.540593        -0.018116
 C         2.151065        -1.070295         0.939043
 C         2.071408        -2.154977        -0.128964
 C         2.040270        -0.782802        -0.944867
 O         1.725280        -0.639319        -2.311530
 H        -0.447264        -0.022829        -0.922254
 H        -0.557381        -0.901347         0.638579
 H        -0.468269         0.986775         0.547476
 H         1.934636         2.006472        -0.301759
 H         2.002749         1.687040         1.521602
 H         4.172900        -1.206302        -0.090941
 H         2.372902        -1.160932         2.016882
 H         2.941220        -2.789570        -0.178032
 H         1.128321        -2.645702        -0.316439
 H         2.141756        -1.377959        -2.702691
