19
Iteration:  3826
 C        -0.208372        -0.055794         0.266650
 C         1.350577        -0.173216         0.231104
 C         1.913808         1.217989         0.520550
 O         3.283380         0.986304         0.244213
 C         3.333208        -0.378720         0.014785
 C         2.436356        -1.198058         0.917150
 C         2.198637        -2.223960        -0.330276
 C         2.161991        -0.871601        -0.985297
 O         1.888641        -0.558943        -2.370220
 H        -0.670863         0.829022         0.715975
 H        -0.374242         0.012641        -0.762675
 H        -0.595115        -0.912595         0.734505
 H         1.384071         2.102791        -0.175962
 H         1.703931         1.618380         1.517766
 H         4.421831        -0.746300         0.004664
 H         2.632534        -1.379457         1.940982
 H         3.195844        -2.762148        -0.597158
 H         1.227730        -2.644588        -0.505933
 H         2.135470         0.387340        -2.394600
