19
Iteration:  2018
 C        -0.265839        -0.137129         0.487986
 C         1.291999        -0.102827         0.088412
 C         1.920819         1.245079         0.183038
 O         3.361964         0.914961         0.233610
 C         3.346938        -0.434462        -0.070971
 C         2.255645        -1.020393         0.884937
 C         2.102665        -2.152876        -0.047997
 C         2.190655        -0.824701        -0.948609
 O         2.154990        -0.609423        -2.352690
 H        -0.394212         0.246801         1.472908
 H        -0.761370         0.585960        -0.290855
 H        -0.688015        -1.244214         0.458303
 H         1.677889         1.881051        -0.773711
 H         1.687363         1.887576         1.135548
 H         4.417684        -0.762919         0.006495
 H         2.397117        -1.261103         2.041526
 H         2.921754        -2.775343        -0.225628
 H         1.143178        -2.700333        -0.059551
 H         1.275599        -0.469770        -2.707816
