19
Iteration:  3991charge 0 multiplicity 1
 C        -0.142724        -0.406221         0.288087
 C         1.352092        -0.061859         0.226506
 C         1.961777         1.300715         0.474378
 O         3.357453         0.992684         0.251804
 C         3.347293        -0.359783        -0.063282
 C         2.302838        -1.097514         0.842244
 C         1.996228        -2.138426        -0.295871
 C         2.195815        -0.755050        -0.959595
 O         1.998149        -0.592137        -2.303345
 H        -0.488327        -0.785947         1.291234
 H        -0.881344         0.390363         0.261986
 H        -0.492212        -1.226071        -0.388431
 H         1.617842         1.914116        -0.261074
 H         1.887879         1.825965         1.430055
 H         4.278394        -0.800629        -0.320650
 H         2.482202        -1.266986         1.965417
 H         2.798747        -2.916681        -0.398650
 H         0.897863        -2.568309        -0.335634
 H         2.106212         0.396094        -2.492548
