19
Iteration:  2737charge 0 multiplicity 1
 C        -0.098585        -0.292386         0.404472
 C         1.279295        -0.009200         0.292763
 C         1.931421         1.340416         0.332797
 O         3.343522         1.051457         0.082814
 C         3.293051        -0.432196        -0.094878
 C         2.242989        -1.010515         0.924599
 C         1.970861        -2.164005        -0.156374
 C         2.058469        -0.848066        -0.937139
 O         2.304075        -0.734160        -2.323263
 H        -0.658468        -0.029668         1.427172
 H        -0.627262         0.377116        -0.292567
 H        -0.560472        -1.334324         0.174652
 H         1.507958         2.104021        -0.452898
 H         1.834073         1.997405         1.391369
 H         4.376157        -0.728474        -0.255608
 H         2.264450        -1.197007         2.041352
 H         2.940467        -2.730059        -0.323944
 H         0.963226        -2.672901        -0.110887
 H         1.533831        -0.720379        -2.872329
