19
Iteration:  1083
 C        -0.154607         0.015766         0.072996
 C         1.344631        -0.014617         0.171450
 C         2.220294         1.324265         0.502773
 O         3.569889         0.849910         0.217400
 C         3.338154        -0.545271        -0.016569
 C         2.162783        -1.063926         0.960131
 C         2.066935        -2.135866        -0.137755
 C         2.040818        -0.788420        -0.958094
 O         1.709409        -0.625862        -2.279764
 H        -0.288232        -0.161737        -1.007114
 H        -0.569588        -0.960961         0.685600
 H        -0.537119         0.902178         0.495697
 H         1.812332         1.960354        -0.353675
 H         1.976570         1.597094         1.535572
 H         4.200787        -1.243032        -0.212417
 H         2.375454        -1.138008         2.059025
 H         2.992805        -2.815605        -0.162465
 H         1.113048        -2.700176        -0.327963
 H         2.274605        -1.371366        -2.771427
