19
Iteration:  4244charge 0 multiplicity 1
 C        -0.150705        -0.364464         0.285425
 C         1.324350        -0.040159         0.211071
 C         1.974766         1.330285         0.401761
 O         3.373080         1.048633         0.191957
 C         3.348881        -0.340102         0.014084
 C         2.346395        -1.056271         0.881817
 C         1.993271        -2.171326        -0.156416
 C         2.182288        -0.788860        -0.948844
 O         1.996463        -0.747733        -2.388033
 H        -0.662889         0.738697         0.498395
 H        -0.535972        -0.772349        -0.655243
 H        -0.571189        -1.012089         1.078434
 H         1.655354         2.123781        -0.372469
 H         1.655160         1.569142         1.487729
 H         4.383792        -0.656109        -0.065235
 H         2.437967        -1.139689         1.989217
 H         2.680949        -2.933158        -0.273976
 H         0.940668        -2.573606        -0.102248
 H         1.931505         0.159461        -2.640995
