19
Iteration:  2884charge 0 multiplicity 1
 C        -0.218028        -0.259148         0.377016
 C         1.279242        -0.073216         0.210949
 C         1.923784         1.282842         0.265955
 O         3.380896         0.995230         0.044238
 C         3.321904        -0.399437        -0.024774
 C         2.304861        -1.048946         0.980163
 C         2.033459        -2.135423        -0.190802
 C         2.091963        -0.800902        -0.893182
 O         2.158423        -0.703695        -2.268451
 H        -0.512652         0.225576         1.284524
 H        -0.898773         0.370353        -0.297372
 H        -0.624684        -1.242979         0.434920
 H         1.582965         2.022709        -0.486476
 H         1.880537         1.828455         1.298964
 H         4.204239        -0.870711        -0.387323
 H         2.240592        -1.264243         2.067542
 H         2.814932        -2.785704        -0.441027
 H         1.108850        -2.685550        -0.075612
 H         2.785471         0.094540        -2.442008
