19
Iteration:  1313
 C        -0.144392        -0.053420         0.453693
 C         1.299608        -0.053316         0.308224
 C         2.050659         1.343388         0.161129
 O         3.471618         0.892125         0.018050
 C         3.295586        -0.544090        -0.017610
 C         2.220654        -1.046755         0.972296
 C         1.859487        -2.152721        -0.135175
 C         2.034727        -0.837198        -0.914719
 O         2.249424        -0.645568        -2.294750
 H        -0.362112        -0.038073         1.496135
 H        -0.690913         0.863819         0.019756
 H        -0.566470        -0.803918        -0.127062
 H         1.645055         1.809760        -0.726574
 H         2.014332         1.908406         1.097760
 H         4.228786        -0.958277        -0.152689
 H         2.120388        -1.176514         2.038669
 H         2.580856        -3.042910        -0.250225
 H         0.793548        -2.448602        -0.001419
 H         1.373587        -0.781160        -2.826610
