19
Iteration:  1979
 C        -0.066106        -0.209813         0.182813
 C         1.372801        -0.008347         0.218832
 C         1.972170         1.368109         0.411628
 O         3.334867         1.020209         0.165781
 C         3.357058        -0.375135        -0.004770
 C         2.319141        -1.167642         0.913542
 C         1.949317        -2.117575        -0.153201
 C         2.154819        -0.818363        -0.930079
 O         1.976585        -0.704461        -2.266402
 H        -0.732466         0.465564         0.825150
 H        -0.301753         0.176563        -0.770309
 H        -0.369727        -1.208774         0.402417
 H         1.585218         2.026408        -0.347329
 H         1.927735         1.749707         1.409111
 H         4.301195        -0.747135        -0.343199
 H         2.461620        -1.289251         1.898975
 H         2.870451        -2.825701        -0.363608
 H         1.012948        -2.659269        -0.198849
 H         1.606089        -1.636707        -2.486590
