19
Iteration:  1826charge 0 multiplicity 1
 C        -0.270342        -0.051711         0.323556
 C         1.304534        -0.069635         0.262920
 C         1.976039         1.286142         0.414912
 O         3.371025         0.995527         0.091292
 C         3.304975        -0.371776        -0.108627
 C         2.300221        -1.068287         0.960212
 C         1.979491        -2.161848        -0.147275
 C         2.203723        -0.881261        -0.955428
 O         2.192355        -0.752451        -2.314430
 H        -0.558705         0.271570         1.378731
 H        -0.589576         0.610754        -0.436187
 H        -0.583006        -0.982327        -0.026381
 H         1.550127         2.051054        -0.282348
 H         1.820165         1.841323         1.382402
 H         4.323269        -0.803595        -0.207549
 H         2.321446        -1.077980         2.021053
 H         2.721197        -2.913607        -0.461394
 H         1.040579        -2.694117        -0.078576
 H         1.421735        -1.221941        -2.647923
