19
Iteration:   478charge 0 multiplicity 1
 C        -0.137956         0.090966         0.427766
 C         1.322388         0.021479         0.171938
 C         2.168437         1.322967         0.063774
 O         3.532742         0.797948         0.069513
 C         3.284797        -0.577015         0.106859
 C         2.168563        -1.114405         0.962018
 C         1.861224        -2.176372        -0.185437
 C         2.042741        -0.834105        -0.832799
 O         2.101868        -0.605216        -2.240168
 H        -0.468102         0.728272         1.282794
 H        -0.696072         0.416426        -0.389514
 H        -0.433644        -1.030998         0.541979
 H         1.905245         1.762246        -0.914873
 H         1.904150         2.112528         0.872477
 H         4.187847        -1.044606         0.016400
 H         2.003771        -1.160511         2.009976
 H         2.798806        -2.753828        -0.392131
 H         0.938734        -2.746665        -0.157478
 H         1.249791        -1.020913        -2.630102
