19
Iteration:  3986charge 0 multiplicity 1
 C        -0.141414        -0.398231         0.325886
 C         1.333999        -0.113273         0.221842
 C         1.949595         1.298215         0.465880
 O         3.346213         0.982014         0.230364
 C         3.326852        -0.375888        -0.050429
 C         2.287361        -1.150703         0.834614
 C         2.013520        -2.090929        -0.267045
 C         2.182721        -0.746200        -0.963917
 O         2.030176        -0.586034        -2.339377
 H        -0.355686        -0.756340         1.394927
 H        -0.747806         0.538279         0.155765
 H        -0.704473        -1.217432        -0.149789
 H         1.593544         2.181860        -0.278422
 H         1.944513         1.778959         1.510645
 H         4.392868        -0.804479        -0.220304
 H         2.324991        -1.172289         1.881808
 H         2.886905        -2.694990        -0.472876
 H         1.069019        -2.468662        -0.323578
 H         2.196553         0.351006        -2.482008
