19
Iteration:  2660charge 0 multiplicity 1
 C        -0.270675        -0.259038         0.230803
 C         1.261152        -0.083739         0.259623
 C         1.992235         1.330650         0.205387
 O         3.431902         1.011334         0.234002
 C         3.361130        -0.374565        -0.057664
 C         2.374595        -1.028454         0.965488
 C         2.063276        -2.155174        -0.139571
 C         2.169550        -0.843183        -0.923827
 O         2.012725        -0.620123        -2.246164
 H        -0.958042         0.104346         1.073702
 H        -0.700008         0.214518        -0.647679
 H        -0.641918        -1.262341         0.028139
 H         1.834291         1.882696        -0.758699
 H         1.824530         1.846263         1.223036
 H         4.354792        -0.789224        -0.160616
 H         2.401920        -1.240491         2.054083
 H         2.863002        -2.889866        -0.290618
 H         1.205148        -2.804982        -0.091599
 H         1.349875        -1.197666        -2.634070
