19
Iteration:   429charge 0 multiplicity 1
 C        -0.122185         0.056023         0.288931
 C         1.317592         0.002804         0.163725
 C         2.113035         1.313339         0.225502
 O         3.557124         0.831402         0.127937
 C         3.309786        -0.618239        -0.032129
 C         2.262119        -1.081496         0.963832
 C         1.783935        -2.144803        -0.010547
 C         2.051387        -0.876518        -0.883274
 O         1.966306        -0.618923        -2.335492
 H        -0.262009         0.826583         1.043300
 H        -0.648123         0.452370        -0.674799
 H        -0.609592        -0.828138         0.568027
 H         1.907124         2.112301        -0.569635
 H         1.983319         1.793606         1.210610
 H         4.349304        -1.139649        -0.228543
 H         2.346270        -1.176183         2.088120
 H         2.419045        -2.984485        -0.176048
 H         0.738387        -2.447446         0.187155
 H         2.866344        -0.678548        -2.645833
