19
Iteration:  4987
 C        -0.235428        -0.065255         0.454524
 C         1.271408        -0.098333         0.271092
 C         1.788688         1.260524         0.088943
 O         3.313917         1.042840        -0.137529
 C         3.280784        -0.361304         0.007411
 C         2.265949        -1.002587         1.018588
 C         2.153080        -2.177396        -0.018131
 C         2.194116        -0.946822        -0.879098
 O         2.211057        -0.778894        -2.254508
 H        -0.658453        -0.290391         1.431871
 H        -0.670128         0.940341         0.219538
 H        -0.794406        -0.735939        -0.282462
 H         1.360669         1.726739        -0.782848
 H         1.771153         1.817241         1.029955
 H         4.429325        -0.623419        -0.051030
 H         2.415804        -1.201168         2.065680
 H         2.915981        -2.896200        -0.008219
 H         1.309438        -2.869910        -0.047141
 H         2.951305        -0.250000        -2.553009
