19
Iteration:  3101
 C        -0.198781        -0.273525         0.366101
 C         1.275194        -0.040328         0.164874
 C         1.920582         1.406226         0.354904
 O         3.389296         1.067692         0.174934
 C         3.347677        -0.373441        -0.060513
 C         2.260041        -1.006438         0.914088
 C         1.999076        -2.168224        -0.185161
 C         2.147547        -0.828064        -0.926292
 O         2.153723        -0.852489        -2.312812
 H        -0.469925         0.093883         1.336951
 H        -0.849876         0.184995        -0.359437
 H        -0.396466        -1.306311         0.328979
 H         1.633386         1.971889        -0.459976
 H         1.767803         1.636036         1.466552
 H         4.370739        -0.811635        -0.315503
 H         2.315652        -1.044614         2.005332
 H         2.777289        -2.913108        -0.270792
 H         0.934695        -2.601559        -0.132882
 H         2.270849        -0.098086        -2.853773
