19
Iteration:  4012
 C        -0.146413        -0.380893         0.143797
 C         1.360430        -0.147229         0.283119
 C         1.955137         1.321516         0.365366
 O         3.402108         1.058339         0.307384
 C         3.405401        -0.414106        -0.024935
 C         2.435016        -1.170738         0.902973
 C         2.025245        -2.102517        -0.220469
 C         2.107222        -0.772615        -0.929293
 O         1.849682        -0.573472        -2.324768
 H        -0.696727        -1.124510         0.850904
 H        -0.713317         0.579228         0.209753
 H        -0.425289        -0.877818        -0.807214
 H         1.695947         2.075228        -0.286818
 H         1.764167         1.701499         1.419156
 H         4.437573        -0.745093        -0.094972
 H         2.540724        -1.311672         2.016994
 H         2.787071        -2.769523        -0.642116
 H         0.976524        -2.530891        -0.116294
 H         1.954587         0.395911        -2.436315
