19
Iteration:  3350charge 0 multiplicity 1
 C        -0.169515        -0.104962         0.208080
 C         1.339536        -0.166493         0.208320
 C         1.899071         1.261222         0.231595
 O         3.339519         1.074959         0.137836
 C         3.414158        -0.364756         0.059349
 C         2.304692        -1.096484         0.995599
 C         2.156294        -2.237686        -0.138862
 C         2.225376        -0.841067        -0.893198
 O         1.861255        -0.676937        -2.270630
 H        -0.634131        -0.378607         1.207691
 H        -0.638847         0.843633         0.260163
 H        -0.685108        -0.722372        -0.615045
 H         1.498688         1.763065        -0.720048
 H         1.527318         1.873585         1.268585
 H         4.441796        -0.806292        -0.149337
 H         2.483978        -1.282384         2.024116
 H         3.049889        -2.845733        -0.229280
 H         1.174761        -2.763828        -0.173349
 H         2.584170        -0.296689        -2.719750
