19
Iteration:  3740
 C        -0.231115        -0.274883         0.438327
 C         1.318872        -0.126660         0.196162
 C         1.905013         1.224734         0.314399
 O         3.336531         0.968514         0.187943
 C         3.335475        -0.453088        -0.022976
 C         2.360574        -1.050589         0.872149
 C         2.019786        -2.157570        -0.309061
 C         2.148435        -0.758500        -0.921102
 O         2.125259        -0.522785        -2.291672
 H        -0.460786        -1.083917         1.171485
 H        -0.905535         0.597800         1.035426
 H        -0.722786        -0.585692        -0.548694
 H         1.415478         1.798464        -0.406925
 H         1.702011         1.729060         1.286421
 H         4.321013        -0.958317        -0.269719
 H         2.452344        -1.087221         1.931938
 H         2.924958        -2.864013        -0.503513
 H         1.055219        -2.636978        -0.325579
 H         2.602014         0.269976        -2.451277
