19
Iteration:   739charge 0 multiplicity 1
 C        -0.128227        -0.037373         0.202907
 C         1.350356         0.001032         0.069475
 C         2.160491         1.289464         0.226313
 O         3.505422         0.846670         0.123542
 C         3.360498        -0.564843        -0.023699
 C         2.198276        -0.994406         0.951408
 C         1.934093        -2.211665        -0.041356
 C         2.155051        -0.863445        -0.860368
 O         1.829730        -0.611914        -2.223037
 H        -0.411939        -0.250742         1.336783
 H        -0.631464         0.764876        -0.243749
 H        -0.480433        -1.116588        -0.199540
 H         2.093112         2.082056        -0.536063
 H         1.878659         1.636834         1.167731
 H         4.460621        -0.793160         0.032184
 H         2.106547        -1.006145         2.123292
 H         2.734874        -2.931657        -0.059002
 H         0.933296        -2.702722         0.049789
 H         1.643389         0.279474        -2.304092
