19
Iteration:   277
 C        -0.168482         0.145208         0.365375
 C         1.349397        -0.005831         0.244349
 C         2.112006         1.301075         0.258396
 O         3.504777         0.828000         0.125964
 C         3.253911        -0.618582        -0.013706
 C         2.291047        -1.036246         0.926887
 C         1.697392        -2.161769         0.020203
 C         2.108787        -0.866496        -1.005973
 O         2.109412        -0.656019        -2.408776
 H        -0.436549         1.001130         0.996892
 H        -0.569184         0.450401        -0.692571
 H        -0.674291        -0.735679         0.751126
 H         1.883303         2.093162        -0.475095
 H         2.097498         1.869476         1.265508
 H         4.314468        -1.220773        -0.114074
 H         2.737028        -1.324945         1.958718
 H         2.305355        -3.031178         0.093617
 H         0.596392        -2.295185         0.003763
 H         2.248739        -1.499226        -2.738163
