19
Iteration:  3133charge 0 multiplicity 1
 C        -0.243532        -0.018743         0.240238
 C         1.302731        -0.107903         0.209656
 C         1.848838         1.260180         0.342623
 O         3.306951         0.990192         0.073320
 C         3.371839        -0.407786         0.046828
 C         2.356716        -1.057944         0.991047
 C         2.224772        -2.195126        -0.158176
 C         2.221250        -0.839972        -0.894213
 O         1.984574        -0.768259        -2.322416
 H        -0.690778         0.124693         1.239381
 H        -0.595218         0.728655        -0.430148
 H        -0.810806        -0.923062        -0.026446
 H         1.320818         1.987439        -0.291551
 H         1.444870         1.736278         1.356821
 H         4.446616        -0.752720        -0.143770
 H         2.529260        -1.231571         2.018134
 H         3.092219        -2.926932        -0.226773
 H         1.207144        -2.779014        -0.005274
 H         2.454538         0.035899        -2.766961
