19
Iteration:   754charge 0 multiplicity 1
 C        -0.091402        -0.084435         0.298671
 C         1.376731        -0.016856         0.152551
 C         2.101051         1.350019         0.166746
 O         3.515939         0.907103         0.085383
 C         3.335648        -0.525798         0.067440
 C         2.186722        -1.104105         0.975094
 C         1.897009        -2.149951        -0.051612
 C         2.072638        -0.904592        -0.922847
 O         1.933352        -0.644465        -2.266844
 H        -0.308396        -0.197303         1.362318
 H        -0.648145         0.947634         0.115617
 H        -0.530693        -0.755168        -0.354937
 H         1.751292         1.986347        -0.672803
 H         2.024110         1.916691         1.148545
 H         4.127205        -1.215803        -0.158130
 H         2.175376        -1.219481         2.017554
 H         2.652603        -2.980402        -0.209127
 H         0.902132        -2.651793        -0.097515
 H         2.182335         0.338124        -2.405897
