19
Iteration:  1214
 C        -0.196447         0.028266         0.171314
 C         1.368342        -0.031970         0.297776
 C         2.107622         1.311830         0.277091
 O         3.472952         0.912988         0.174185
 C         3.370298        -0.510817        -0.081902
 C         2.363470        -1.144373         0.963749
 C         1.910563        -2.128304        -0.089772
 C         2.085947        -0.835658        -0.871167
 O         1.894804        -0.753196        -2.280208
 H        -0.472472         1.075544         0.275425
 H        -0.558600        -0.404225        -0.904328
 H        -0.836455        -0.412847         0.892048
 H         1.864935         2.008541        -0.587256
 H         1.938701         1.864378         1.259015
 H         4.302210        -1.026363        -0.249080
 H         2.369057        -1.378903         2.042501
 H         2.451454        -3.108544        -0.332022
 H         0.856473        -2.512160        -0.138075
 H         2.141033         0.210134        -2.484219
