19
Iteration:  3331
 C        -0.107848        -0.294830         0.185676
 C         1.379737        -0.066746         0.226059
 C         1.960280         1.328561         0.257230
 O         3.328413         1.002120         0.182041
 C         3.357929        -0.355715         0.031191
 C         2.355576        -1.082303         0.953708
 C         2.105317        -2.081810        -0.113181
 C         2.135722        -0.836934        -0.894960
 O         1.854330        -0.721584        -2.250975
 H        -0.682316        -0.540737         1.116247
 H        -0.635867         0.728810        -0.195994
 H        -0.319022        -0.985384        -0.598502
 H         1.615622         1.832317        -0.702379
 H         1.778972         1.876265         1.105838
 H         4.344939        -0.828392         0.016623
 H         2.385451        -1.243330         2.058822
 H         2.840268        -2.775845        -0.492987
 H         1.020308        -2.507009        -0.184159
 H         2.536565        -0.219375        -2.683615
