19
Iteration:    92
 C        -0.137047         0.108366         0.356439
 C         1.351677         0.125122         0.180839
 C         2.165018         1.309985         0.322411
 O         3.520092         0.859409         0.137150
 C         3.317713        -0.588639         0.017867
 C         2.226727        -1.124336         0.884972
 C         1.797823        -2.073256        -0.173371
 C         2.093114        -0.795425        -0.955969
 O         1.947101        -0.891886        -2.288873
 H        -0.508377         0.544139         1.274005
 H        -0.726985         0.558499        -0.492874
 H        -0.326485        -0.893637         0.435991
 H         1.727209         2.031110        -0.455595
 H         2.090697         1.908141         1.209817
 H         4.262297        -1.238646         0.178729
 H         2.402384        -1.251653         1.991059
 H         2.469876        -2.874068        -0.514731
 H         0.756222        -2.351807        -0.025504
 H         2.651978        -0.315815        -2.697487
