19
Iteration:   407
 C        -0.179992         0.056547         0.231822
 C         1.306887         0.116760         0.217123
 C         2.252265         1.358529         0.396800
 O         3.572332         0.816855         0.053292
 C         3.333578        -0.556948         0.014067
 C         2.147675        -1.034996         0.936600
 C         1.870413        -2.153800        -0.152979
 C         2.048900        -0.848991        -0.890670
 O         1.899214        -0.864391        -2.268992
 H        -0.660815         0.557825         1.065774
 H        -0.637890         0.551190        -0.728662
 H        -0.417619        -0.963991         0.225691
 H         2.108565         2.236293        -0.345957
 H         2.347218         1.846169         1.403588
 H         4.437137        -0.997604        -0.041007
 H         2.199132        -1.112925         2.068648
 H         2.655996        -2.863394        -0.205171
 H         0.878719        -2.614554        -0.318838
 H         2.239889         0.010833        -2.629989
