19
Iteration:  3828charge 0 multiplicity 1
 C        -0.200035        -0.059972         0.260185
 C         1.357760        -0.199982         0.242788
 C         1.901537         1.214942         0.507101
 O         3.293005         0.996034         0.249742
 C         3.342714        -0.393371         0.024619
 C         2.430690        -1.184190         0.898640
 C         2.203336        -2.202518        -0.326887
 C         2.155147        -0.873879        -0.989560
 O         1.879205        -0.553668        -2.348430
 H        -0.622899         0.860722         0.598906
 H        -0.339478         0.029081        -0.825777
 H        -0.587037        -0.958941         0.739753
 H         1.435335         2.026748        -0.116519
 H         1.753298         1.604785         1.488413
 H         4.356888        -0.680741        -0.047983
 H         2.608092        -1.375098         1.963675
 H         3.131391        -2.762536        -0.577394
 H         1.182396        -2.646354        -0.547155
 H         2.081268         0.355225        -2.420115
