19
Iteration:  4941charge 0 multiplicity 1
 C        -0.260324        -0.334200         0.252178
 C         1.334778        -0.043690         0.187792
 C         1.959305         1.341764         0.141188
 O         3.381551         1.077040         0.051297
 C         3.416601        -0.361845        -0.021936
 C         2.315878        -0.893569         1.004132
 C         2.031904        -2.080005         0.071604
 C         2.154495        -0.881423        -0.890808
 O         2.002826        -0.897288        -2.255306
 H        -0.495335        -1.116819         1.035993
 H        -0.894798         0.504801         0.503689
 H        -0.571686        -0.663273        -0.736127
 H         1.684624         1.831506        -0.746319
 H         1.802268         1.974188         1.016695
 H         4.498895        -0.747692        -0.085747
 H         2.457073        -0.834124         2.007118
 H         2.623282        -2.998470        -0.066539
 H         1.089520        -2.631400         0.132409
 H         2.279727        -0.011831        -2.650049
