19
Iteration:  2697charge 0 multiplicity 1
 C        -0.245316        -0.054552         0.463825
 C         1.329797        -0.187918         0.157064
 C         1.876641         1.271535         0.196736
 O         3.307403         1.072613         0.158329
 C         3.384766        -0.336861        -0.015976
 C         2.210374        -1.075931         0.902222
 C         2.098784        -2.262455        -0.148540
 C         2.223241        -0.937913        -0.934071
 O         2.179314        -0.656865        -2.321392
 H        -0.322611         0.332771         1.406906
 H        -0.515806         0.696461        -0.258069
 H        -0.673454        -1.092668         0.407013
 H         1.547327         2.111552        -0.338334
 H         1.618476         1.637256         1.187520
 H         4.446549        -0.702059        -0.140046
 H         2.212178        -1.296225         1.955478
 H         3.040349        -2.831322        -0.144280
 H         1.144016        -2.742922        -0.140468
 H         1.238030        -0.606276        -2.710178
