19
Iteration:   957
 C        -0.186333         0.028407         0.442593
 C         1.348256        -0.037686         0.187867
 C         2.056782         1.314549         0.421620
 O         3.402843         0.964814         0.200815
 C         3.375294        -0.421646        -0.021531
 C         2.351537        -1.162660         0.853992
 C         1.736697        -2.112349        -0.206375
 C         2.088522        -0.872044        -1.035655
 O         2.128578        -0.867012        -2.397016
 H        -0.648762         0.848500        -0.159090
 H        -0.734465        -0.874551         0.359745
 H        -0.220979         0.423927         1.543656
 H         1.693421         2.104518        -0.222925
 H         1.965941         1.768914         1.462158
 H         4.324413        -0.893144        -0.250291
 H         2.272789        -1.212426         1.983269
 H         2.218229        -3.048460        -0.417628
 H         0.646188        -2.285637        -0.146830
 H         2.790065        -0.099255        -2.653730
