19
Iteration:  2420charge 0 multiplicity 1
 C        -0.158930        -0.275044         0.389858
 C         1.343448        -0.077153         0.120641
 C         1.928908         1.327318         0.336758
 O         3.436185         1.060238         0.210116
 C         3.343078        -0.429244         0.067387
 C         2.310947        -0.983920         0.896805
 C         1.944830        -2.093529        -0.209531
 C         2.114060        -0.780621        -0.992813
 O         2.054462        -0.878060        -2.350666
 H        -0.584309         0.622169         0.952654
 H        -0.644679        -0.167228        -0.554378
 H        -0.373369        -1.201350         0.856679
 H         1.778482         2.164271        -0.363702
 H         1.722130         1.750496         1.346074
 H         4.268876        -0.837193         0.021137
 H         2.303904        -0.941029         1.981508
 H         2.777544        -2.822541        -0.266135
 H         0.970475        -2.557621        -0.159862
 H         2.072607        -0.035857        -2.800970
