19
Iteration:  2801charge 0 multiplicity 1
 C        -0.214989        -0.076472         0.167732
 C         1.337393        -0.083244         0.237647
 C         1.939979         1.350316         0.257471
 O         3.315455         1.050734         0.251069
 C         3.363021        -0.350549        -0.075956
 C         2.355325        -1.177604         0.975698
 C         2.221193        -2.250971        -0.071682
 C         2.195320        -0.892322        -0.924425
 O         1.865286        -0.614314        -2.261522
 H        -0.665610         0.543001         1.055076
 H        -0.338605         0.442054        -0.780642
 H        -0.764850        -1.047862         0.047976
 H         1.655886         1.866182        -0.678449
 H         1.636999         1.858505         1.067255
 H         4.395338        -0.808330        -0.192207
 H         2.483406        -1.469124         2.083988
 H         3.123509        -2.980888        -0.178323
 H         1.343887        -3.023659        -0.240635
 H         1.921289        -1.431760        -2.728234
