19
Iteration:   918
 C        -0.142004        -0.029660         0.166790
 C         1.347512        -0.009377         0.220272
 C         2.161243         1.342655         0.368972
 O         3.469832         0.827394         0.132259
 C         3.304830        -0.560096         0.021016
 C         2.216660        -1.035904         0.963360
 C         2.030235        -2.151557        -0.144770
 C         2.120268        -0.852022        -0.866605
 O         1.812959        -0.666364        -2.302174
 H        -0.584315         1.004673         0.000505
 H        -0.512731        -0.640749        -0.724608
 H        -0.502005        -0.601782         0.949996
 H         1.983605         2.014165        -0.519429
 H         2.133770         1.902540         1.286461
 H         4.293119        -0.927189        -0.090689
 H         2.195902        -1.214477         1.983995
 H         2.916528        -2.842938        -0.224527
 H         1.146371        -2.786705        -0.097212
 H         1.989789         0.208816        -2.514436
