19
Iteration:  2663
 C        -0.281900        -0.238783         0.238876
 C         1.264776        -0.088558         0.263758
 C         1.969739         1.344140         0.204074
 O         3.424686         1.003995         0.230835
 C         3.367370        -0.396493        -0.038497
 C         2.368856        -1.019041         0.954485
 C         2.072218        -2.166895        -0.151021
 C         2.170775        -0.828513        -0.907080
 O         2.019775        -0.628662        -2.251170
 H        -0.831750         0.105787         1.094324
 H        -0.706607         0.228507        -0.641704
 H        -0.687933        -1.294540         0.024623
 H         1.821937         1.856257        -0.722185
 H         1.829976         1.859552         1.150538
 H         4.405990        -0.839617        -0.153552
 H         2.460276        -1.213425         2.036145
 H         2.950404        -2.843123        -0.350257
 H         1.219550        -2.809235        -0.077272
 H         1.305902        -1.165544        -2.725476
