19
Iteration:  1583charge 0 multiplicity 1
 C        -0.105718        -0.073351         0.124018
 C         1.364602        -0.067360         0.170335
 C         1.994552         1.319383         0.305950
 O         3.456827         0.948852         0.112957
 C         3.343490        -0.455035        -0.035001
 C         2.244860        -1.119959         0.981680
 C         2.093947        -2.219783         0.042134
 C         2.114860        -0.843927        -0.947270
 O         1.810273        -0.575329        -2.237481
 H        -0.661800         0.083517         1.205731
 H        -0.384122         0.762324        -0.544067
 H        -0.535061        -1.107237        -0.148089
 H         1.717716         1.905030        -0.663324
 H         1.855729         1.755996         1.360598
 H         4.261413        -0.933520        -0.037990
 H         2.279282        -1.184157         2.068060
 H         2.872339        -2.935837        -0.201652
 H         1.131868        -2.718845        -0.005724
 H         2.630559        -0.928783        -2.665053
