19
Iteration:  4952
 C        -0.221677        -0.249412         0.314632
 C         1.252196        -0.084022         0.151302
 C         1.879542         1.334287         0.066458
 O         3.382583         1.057403        -0.000419
 C         3.353435        -0.331361        -0.008794
 C         2.370776        -0.942980         1.002821
 C         2.029238        -2.168476         0.072526
 C         2.192404        -0.911771        -0.817511
 O         2.055891        -0.823772        -2.281946
 H        -0.430813        -0.922771         1.185580
 H        -0.702149         0.706176         0.447399
 H        -0.603882        -0.722067        -0.607268
 H         1.638377         2.018474        -0.677299
 H         1.663740         1.795136         1.019665
 H         4.313463        -0.937010         0.036280
 H         2.484885        -1.062338         1.996131
 H         2.943150        -2.748569         0.060385
 H         0.995045        -2.483212         0.170796
 H         2.465655         0.008576        -2.421064
