19
Iteration:  3037charge 0 multiplicity 1
 C        -0.252911        -0.095648         0.279989
 C         1.276078        -0.161164         0.241733
 C         1.924001         1.252590         0.215946
 O         3.276934         1.005293         0.061872
 C         3.337149        -0.442214         0.058431
 C         2.368836        -1.087896         0.994175
 C         2.185192        -2.219439        -0.178749
 C         2.179901        -0.790261        -0.885125
 O         2.023844        -0.646177        -2.235124
 H        -0.483234         0.590122         1.086190
 H        -0.704702         0.273611        -0.771178
 H        -0.821594        -0.957478         0.522439
 H         1.572283         1.864422        -0.757177
 H         1.825692         1.867567         1.159712
 H         4.380183        -0.833645        -0.180247
 H         2.395729        -1.370105         2.157993
 H         3.021940        -2.764263        -0.354776
 H         1.213328        -2.808481        -0.119909
 H         2.619173         0.066370        -2.608629
