19
Iteration:  4838charge 0 multiplicity 1
 C        -0.278959        -0.234272         0.411909
 C         1.284627        -0.043886         0.182807
 C         1.933538         1.328869         0.047210
 O         3.304754         1.092079        -0.105826
 C         3.378644        -0.395691        -0.008419
 C         2.290458        -0.962301         1.031028
 C         1.982702        -2.112415         0.068084
 C         2.222453        -0.839799        -0.860477
 O         2.167508        -0.929143        -2.250985
 H        -0.640191        -1.027786        -0.210504
 H        -0.463811        -0.383604         1.486159
 H        -0.888182         0.628231         0.079969
 H         1.608497         1.919948        -0.730711
 H         1.834123         1.925488         0.953978
 H         4.311798        -0.912899        -0.012953
 H         2.370912        -0.988884         2.203764
 H         2.961804        -2.732686         0.042559
 H         0.998959        -2.570204         0.096349
 H         2.643037        -0.206017        -2.597168
