19
Iteration:  3795charge 0 multiplicity 1
 C        -0.220595        -0.236478         0.465347
 C         1.294704        -0.160009         0.185985
 C         1.946782         1.231740         0.485641
 O         3.376872         0.996750         0.232180
 C         3.296850        -0.342516        -0.106484
 C         2.289412        -1.095334         0.848467
 C         2.095020        -2.109540        -0.325776
 C         2.104450        -0.779189        -0.975039
 O         2.110988        -0.630448        -2.344030
 H        -0.544595         0.148518         1.417696
 H        -0.672914         0.249160        -0.430779
 H        -0.764868        -1.207400         0.371146
 H         1.580473         1.928148        -0.191097
 H         1.780574         1.427103         1.516280
 H         4.230519        -0.851049        -0.263772
 H         2.313804        -1.263769         1.915405
 H         2.949286        -2.841356        -0.491712
 H         1.137806        -2.648939        -0.488446
 H         2.560813         0.245601        -2.428287
