19
Iteration:  4381charge 0 multiplicity 1
 C        -0.229193        -0.212725         0.094043
 C         1.387861        -0.084127         0.191600
 C         1.936443         1.303716         0.345881
 O         3.402171         1.073255         0.176524
 C         3.389162        -0.327851        -0.016232
 C         2.374677        -1.074559         0.925800
 C         2.147972        -2.163803        -0.087577
 C         2.142934        -0.830282        -0.874678
 O         1.800594        -0.810594        -2.252951
 H        -0.637562        -0.991084         0.733296
 H        -0.824284         0.679833         0.511621
 H        -0.444882        -0.411110        -1.044967
 H         1.663463         2.009517        -0.431673
 H         1.734302         1.684427         1.462352
 H         4.373771        -0.697931        -0.052953
 H         2.564928        -1.092557         2.064318
 H         3.122418        -2.825758        -0.180795
 H         1.226743        -2.796795        -0.117975
 H         2.227402         0.060791        -2.587377
