19
Iteration:  1457
 C        -0.193602        -0.050457         0.219515
 C         1.312858        -0.048390         0.267192
 C         2.022576         1.284008         0.220096
 O         3.451820         0.910050         0.070806
 C         3.384848        -0.445506        -0.011053
 C         2.319799        -1.209893         1.028131
 C         1.957358        -2.135921        -0.111935
 C         2.098207        -0.783648        -0.852705
 O         1.977258        -0.561894        -2.199820
 H        -0.599286         0.944882         0.433045
 H        -0.355288        -0.231450        -0.972241
 H        -0.679511        -0.927274         0.690560
 H         1.753248         1.826858        -0.705109
 H         1.940802         2.006147         1.108867
 H         4.356783        -1.005357        -0.188848
 H         2.472038        -1.381431         2.118884
 H         2.732891        -2.915418        -0.488123
 H         0.929318        -2.619673        -0.247300
 H         1.815914        -1.432957        -2.708861
