19
Iteration:  1320charge 0 multiplicity 1
 C        -0.186942        -0.037019         0.499426
 C         1.331760        -0.049794         0.218445
 C         2.051738         1.299798         0.151917
 O         3.436379         0.895736         0.001083
 C         3.285709        -0.535131        -0.025518
 C         2.176976        -1.054590         0.988706
 C         1.855480        -2.147286        -0.107012
 C         2.104752        -0.862588        -0.948836
 O         2.267460        -0.637553        -2.277429
 H        -0.501654        -0.140767         1.650141
 H        -0.618177         0.894337         0.240859
 H        -0.807080        -0.876925        -0.028560
 H         1.882083         2.004635        -0.698383
 H         2.028719         1.952876         1.067804
 H         4.282059        -1.099848        -0.100667
 H         2.275267        -1.089746         2.099178
 H         2.557553        -2.920577        -0.394915
 H         0.846993        -2.537646         0.064461
 H         1.426894        -0.531926        -2.733540
