19
Iteration:  2313
 C        -0.132865        -0.244343         0.221221
 C         1.329095        -0.100143         0.245805
 C         1.958500         1.314588         0.298885
 O         3.354606         1.002072         0.186689
 C         3.335248        -0.442170        -0.083927
 C         2.344779        -1.010904         0.936456
 C         2.000408        -2.077113        -0.076224
 C         2.156878        -0.783178        -0.893654
 O         1.967292        -0.785316        -2.278662
 H        -0.515699        -0.005750         1.159663
 H        -0.539904         0.527425        -0.521617
 H        -0.606239        -1.196626        -0.197444
 H         1.686150         2.031377        -0.525687
 H         1.934944         1.909930         1.196818
 H         4.275553        -0.840385        -0.249287
 H         2.605653        -1.170492         1.961363
 H         2.709710        -2.918628        -0.353614
 H         0.978725        -2.402572         0.043966
 H         2.466882        -0.138795        -2.742377
