19
Iteration:  1295charge 0 multiplicity 1
 C        -0.150575        -0.041888         0.305388
 C         1.369389         0.016925         0.293697
 C         2.085856         1.346158         0.258543
 O         3.441648         0.921808         0.112875
 C         3.315079        -0.502657        -0.072669
 C         2.263645        -1.129030         0.972741
 C         1.818278        -2.139978        -0.100885
 C         2.120907        -0.838880        -0.909857
 O         2.070108        -0.665628        -2.280145
 H        -0.690411         0.197515         1.239722
 H        -0.658362         0.640921        -0.432241
 H        -0.472269        -1.077624        -0.034387
 H         1.950421         1.925977        -0.706327
 H         2.027347         2.055121         1.100516
 H         4.309949        -1.010216        -0.298754
 H         2.605944        -1.327660         1.999153
 H         2.572631        -2.848576        -0.366878
 H         0.813763        -2.556997        -0.070371
 H         1.542435        -1.471217        -2.635919
