19
Iteration:  2700
 C        -0.263060        -0.076998         0.469156
 C         1.306470        -0.176243         0.150384
 C         1.866592         1.278329         0.228582
 O         3.320299         1.085613         0.149758
 C         3.425230        -0.340508        -0.022915
 C         2.205625        -1.074440         0.877630
 C         2.104686        -2.256453        -0.140772
 C         2.205816        -0.953435        -0.937540
 O         2.208952        -0.658681        -2.325537
 H        -0.313234         0.368686         1.486378
 H        -0.621150         0.739714        -0.232184
 H        -0.789260        -0.990548         0.444779
 H         1.474458         2.075242        -0.425784
 H         1.662092         1.576519         1.206224
 H         4.420432        -0.686484        -0.133098
 H         2.295577        -1.185904         1.960410
 H         2.940046        -3.009601        -0.152652
 H         1.061595        -2.782537        -0.157150
 H         1.250240        -0.589516        -2.608439
