19
Iteration:  3829
 C        -0.193644        -0.063894         0.255980
 C         1.359828        -0.211601         0.249459
 C         1.895311         1.213354         0.498265
 O         3.298339         1.001659         0.252648
 C         3.347892        -0.400273         0.027970
 C         2.425543        -1.177791         0.888369
 C         2.205327        -2.192125        -0.325346
 C         2.152467        -0.871529        -0.990675
 O         1.874591        -0.553270        -2.336534
 H        -0.598084         0.885879         0.555738
 H        -0.335587         0.028436        -0.864415
 H        -0.595951        -0.985733         0.740192
 H         1.470782         1.976472        -0.088067
 H         1.776389         1.596742         1.493589
 H         4.338114        -0.653500        -0.081259
 H         2.593978        -1.376276         1.977255
 H         3.085212        -2.766665        -0.566206
 H         1.173449        -2.657460        -0.554642
 H         2.060766         0.367679        -2.438042
