19
Iteration:  1003
 C        -0.292488         0.042792         0.561127
 C         1.213218        -0.025562         0.180296
 C         2.134584         1.339545         0.228338
 O         3.521956         0.855985         0.078961
 C         3.300625        -0.552568         0.009154
 C         2.162977        -1.116886         0.949839
 C         1.927936        -2.196391        -0.247073
 C         2.091058        -0.818479        -0.920426
 O         2.172225        -0.657722        -2.349207
 H        -0.982611        -0.125699        -0.394928
 H        -0.426290        -0.786444         1.159486
 H        -0.732516         0.951069         1.107427
 H         1.934846         2.202927        -0.464516
 H         1.882683         1.756828         1.241296
 H         4.148605        -1.261444        -0.059412
 H         2.303121        -1.442895         1.951169
 H         2.746233        -2.889199        -0.538162
 H         1.024410        -2.813077        -0.296217
 H         2.599398         0.309694        -2.447444
