19
Iteration:  4194
 C        -0.171289        -0.193857         0.093482
 C         1.338042        -0.099980         0.236621
 C         1.913696         1.266085         0.434389
 O         3.387067         1.085724         0.159432
 C         3.384975        -0.378997        -0.028215
 C         2.350772        -1.139801         0.963934
 C         2.198027        -2.195958        -0.134786
 C         2.154461        -0.844694        -0.921145
 O         1.795700        -0.646377        -2.264132
 H        -0.504662         0.690337        -0.511144
 H        -0.520748        -1.208371        -0.382484
 H        -0.652179        -0.226653         1.109760
 H         1.396361         1.728888        -0.345056
 H         1.742553         1.752363         1.349861
 H         4.481731        -0.737459        -0.097964
 H         2.448573        -1.303177         2.008453
 H         3.075446        -2.955441        -0.389969
 H         1.210051        -2.666063        -0.201092
 H         2.422261         0.094575        -2.515553
