19
Iteration:  2423
 C        -0.183532        -0.265346         0.389091
 C         1.339050        -0.064093         0.107279
 C         1.970264         1.329883         0.352169
 O         3.422885         1.048461         0.213806
 C         3.346854        -0.388974         0.059401
 C         2.308380        -0.986415         0.898997
 C         1.951342        -2.099661        -0.186797
 C         2.111927        -0.779611        -0.995933
 O         2.051781        -0.894419        -2.351523
 H        -0.518384         0.545435         0.893845
 H        -0.779058        -0.186774        -0.576626
 H        -0.371759        -1.290865         0.795721
 H         1.714785         2.176371        -0.333447
 H         1.771451         1.795106         1.276297
 H         4.314830        -0.950869         0.012949
 H         2.345756        -0.999379         1.973379
 H         2.820852        -2.848886        -0.317892
 H         0.980681        -2.593670        -0.230194
 H         2.052371         0.083406        -2.705918
