19
Iteration:  3266charge 0 multiplicity 1
 C        -0.198997        -0.085941         0.411910
 C         1.278359        -0.140338         0.218110
 C         1.880002         1.312830         0.364057
 O         3.303808         1.102809         0.035721
 C         3.322456        -0.367374        -0.015936
 C         2.240908        -1.166201         0.901941
 C         2.137110        -2.198993        -0.212676
 C         2.208004        -0.857046        -0.895823
 O         2.136287        -0.784444        -2.278955
 H        -0.414147         0.624411         1.228253
 H        -0.558753         0.261629        -0.640578
 H        -0.577460        -1.044631         0.556404
 H         1.481737         2.004272        -0.410230
 H         1.799739         1.640751         1.363998
 H         4.394185        -0.639972        -0.166795
 H         2.284811        -1.441594         2.004734
 H         2.930339        -2.895910        -0.460120
 H         1.052357        -2.656222        -0.397035
 H         2.206752         0.234057        -2.371765
