19
Iteration:  2988
 C        -0.156978        -0.286358         0.149590
 C         1.323615        -0.065327         0.152331
 C         1.892646         1.336205         0.388978
 O         3.401806         1.008132         0.105611
 C         3.408440        -0.386280         0.005395
 C         2.358089        -1.003505         1.011626
 C         2.027980        -2.118420        -0.110226
 C         2.153902        -0.840301        -0.921936
 O         1.891529        -0.730598        -2.257303
 H        -0.705493        -0.064147         1.085910
 H        -0.582037         0.167936        -0.663442
 H        -0.395284        -1.373821        -0.071634
 H         1.748097         2.106108        -0.356053
 H         1.887008         1.675658         1.547570
 H         4.416104        -0.775778        -0.061337
 H         2.498424        -1.130540         2.055929
 H         2.821023        -2.916926        -0.416931
 H         1.011073        -2.461724        -0.100313
 H         2.563744        -0.149084        -2.624055
