19
Iteration:   677
 C        -0.160078         0.121525         0.290314
 C         1.307964        -0.030473         0.217239
 C         2.064640         1.261958         0.410912
 O         3.470580         0.920230         0.122262
 C         3.380091        -0.495710        -0.053687
 C         2.287947        -1.083454         0.949739
 C         1.912725        -2.153416        -0.103478
 C         2.141694        -0.880517        -0.993245
 O         2.008136        -0.757091        -2.364637
 H        -0.378119         1.047946         0.867476
 H        -0.636777         0.174279        -0.739043
 H        -0.687500        -0.579692         0.891648
 H         1.851828         2.118126        -0.267454
 H         1.809448         1.640761         1.492222
 H         4.281121        -1.188205        -0.164261
 H         2.454304        -1.228087         2.046389
 H         2.574813        -3.031878        -0.267429
 H         0.805050        -2.412138         0.016617
 H         1.112316        -0.885690        -2.541982
