19
Iteration:   313charge 0 multiplicity 1
 C        -0.153534         0.034232         0.415723
 C         1.338325         0.096449         0.117972
 C         2.226799         1.397933         0.059305
 O         3.596260         0.833484         0.034892
 C         3.288693        -0.631683         0.085367
 C         2.082113        -1.093562         0.915946
 C         1.771821        -2.169763        -0.126202
 C         2.073580        -0.867975        -0.826884
 O         2.072222        -0.610374        -2.170246
 H        -0.319589         0.421779         1.448598
 H        -0.755318         0.622289        -0.250074
 H        -0.601909        -1.052861         0.335276
 H         2.108259         1.947231        -0.808429
 H         2.033014         1.958081         0.948529
 H         4.109026        -1.317022         0.112767
 H         2.218390        -1.275812         2.022267
 H         2.518496        -3.041107        -0.137440
 H         0.762644        -2.527568        -0.444299
 H         1.761703        -1.337967        -2.679439
