19
Iteration:  4098
 C        -0.157137        -0.319394         0.481769
 C         1.302332        -0.096260         0.185783
 C         1.931025         1.308560         0.440239
 O         3.307965         1.082018         0.154975
 C         3.325976        -0.340457        -0.059522
 C         2.296426        -1.133843         0.855410
 C         1.960007        -2.151942        -0.217455
 C         2.129098        -0.781751        -0.980294
 O         2.207889        -0.706508        -2.385716
 H        -0.398000        -1.170373        -0.187102
 H        -0.379972        -0.580212         1.473841
 H        -0.713913         0.568615         0.381211
 H         1.593806         2.107443        -0.346397
 H         1.665704         1.672783         1.477897
 H         4.229435        -0.896013        -0.240066
 H         2.261155        -1.220024         1.957508
 H         2.533637        -3.010213        -0.498866
 H         0.967743        -2.373078        -0.184219
 H         2.592108         0.224066        -2.542907
