19
Iteration:  4628
 C        -0.238867        -0.094993         0.449600
 C         1.298998        -0.101639         0.129400
 C         1.910454         1.324100         0.114894
 O         3.255731         1.075201        -0.029707
 C         3.289994        -0.422367         0.010114
 C         2.310106        -1.012865         1.028861
 C         2.144917        -2.202761        -0.049758
 C         2.178849        -0.929773        -0.880556
 O         2.107950        -0.734576        -2.269768
 H        -0.339318         0.318710         1.398083
 H        -0.713113         0.395543        -0.375304
 H        -0.706369        -1.051501         0.529933
 H         1.464725         1.881193        -0.742422
 H         1.728988         1.877268         1.069138
 H         4.446396        -0.799823        -0.037156
 H         2.360426        -1.152239         2.062548
 H         3.164912        -2.664301        -0.036040
 H         1.112489        -2.674180        -0.055138
 H         2.976293        -1.145131        -2.583108
