19
Iteration:  3757charge 0 multiplicity 1
 C        -0.152315        -0.408381         0.484362
 C         1.297885        -0.090162         0.221195
 C         1.930261         1.299305         0.364756
 O         3.356722         1.047190         0.176025
 C         3.323548        -0.380699        -0.057675
 C         2.253488        -1.168275         0.893882
 C         1.907305        -2.124453        -0.301864
 C         2.162091        -0.802024        -0.968485
 O         2.176313        -0.557876        -2.355061
 H        -0.322595        -0.871328         1.478755
 H        -0.524601         0.513462         0.606747
 H        -0.539838        -1.019944        -0.298177
 H         1.705605         2.154231        -0.421054
 H         1.730735         1.889990         1.285301
 H         4.396311        -0.686868        -0.116745
 H         2.283860        -1.460522         1.976393
 H         2.609992        -2.957123        -0.484470
 H         0.838422        -2.367204        -0.272431
 H         2.681154         0.223652        -2.452894
