19
Iteration:  1783charge 0 multiplicity 1
 C        -0.202758        -0.156476         0.086416
 C         1.315210        -0.095942         0.162261
 C         2.043636         1.276167         0.260768
 O         3.467238         0.956113         0.189267
 C         3.442058        -0.382081         0.054886
 C         2.295447        -1.032327         0.959747
 C         2.048739        -2.223912        -0.130308
 C         2.163312        -0.857977        -0.857176
 O         1.796309        -0.571265        -2.191475
 H        -0.582432         0.620012         0.899008
 H        -0.738212         0.122040        -0.804010
 H        -0.672970        -1.088343         0.268056
 H         1.758484         2.020838        -0.461006
 H         1.813700         1.900131         1.127121
 H         4.437669        -0.792016        -0.236290
 H         2.515113        -1.106464         2.001114
 H         2.766072        -3.007342        -0.044047
 H         1.102509        -2.670972        -0.333284
 H         2.168393        -1.330036        -2.735558
