19
Iteration:  1846charge 0 multiplicity 1
 C        -0.296066        -0.157966         0.472724
 C         1.255121         0.040431         0.129021
 C         2.028520         1.337869         0.347728
 O         3.388415         1.003071         0.073173
 C         3.306801        -0.426806         0.050878
 C         2.197336        -1.020372         0.887416
 C         2.009782        -2.184674        -0.181910
 C         2.195287        -0.821359        -0.944248
 O         2.241795        -0.810215        -2.378551
 H        -0.236845         0.027909         1.542809
 H        -0.832400         0.649772        -0.048137
 H        -0.720980        -1.182464         0.154818
 H         1.694153         2.249053        -0.270632
 H         1.916604         1.665697         1.466008
 H         4.306850        -0.914837        -0.024081
 H         2.271653        -1.383778         1.950053
 H         2.884105        -2.887066         0.073682
 H         1.016978        -2.752660        -0.248284
 H         1.320078        -0.612139        -2.784086
