19
Iteration:  3462charge 0 multiplicity 1
 C        -0.324751        -0.106801         0.280596
 C         1.343676        -0.100158         0.227647
 C         1.944929         1.303284         0.254612
 O         3.339564         1.022634         0.178484
 C         3.369523        -0.368657        -0.083162
 C         2.282688        -1.092469         0.964933
 C         2.175767        -2.211503        -0.103018
 C         2.210687        -0.887813        -0.951855
 O         2.031135        -0.746220        -2.312252
 H        -0.451286        -0.465451         1.288199
 H        -0.827803         0.911732         0.370291
 H        -0.618565        -0.768974        -0.464504
 H         1.611539         2.037864        -0.565316
 H         1.721069         1.972466         1.306063
 H         4.292113        -0.803135        -0.023249
 H         2.424708        -1.131238         2.080169
 H         3.050991        -2.776339        -0.146112
 H         1.238693        -2.840240        -0.151738
 H         1.654853         0.151924        -2.557847
