19
Iteration:  4282charge 0 multiplicity 1
 C        -0.242461        -0.160894         0.536973
 C         1.246149        -0.181210         0.213942
 C         1.902457         1.274341         0.224085
 O         3.291667         1.052088         0.139371
 C         3.334660        -0.350355        -0.003002
 C         2.273137        -1.119643         0.897454
 C         2.131269        -2.219265        -0.214733
 C         2.099476        -0.870090        -0.952992
 O         2.185972        -0.656730        -2.347680
 H        -0.362997         0.697232         0.991010
 H        -0.837632         0.219352        -0.306422
 H        -0.650759        -1.002948         1.101335
 H         1.628626         1.930474        -0.592386
 H         1.834092         1.927466         1.168412
 H         4.369257        -0.731398        -0.102315
 H         2.558447        -1.310489         1.944166
 H         3.117389        -2.874432        -0.307654
 H         1.194907        -2.710634        -0.412350
 H         2.619820         0.198237        -2.498915
