19
Iteration:  3122
 C        -0.188884        -0.085718         0.288489
 C         1.290811        -0.109457         0.251696
 C         1.870210         1.305316         0.341080
 O         3.312413         1.058477         0.094345
 C         3.317994        -0.343157         0.027624
 C         2.296802        -1.108608         0.970218
 C         2.146578        -2.128233        -0.155720
 C         2.196102        -0.881677        -0.955998
 O         2.041963        -0.830805        -2.327764
 H        -0.490312         0.228119         1.302941
 H        -0.585995         0.625105        -0.391078
 H        -0.509862        -1.079822         0.007247
 H         1.571537         1.984078        -0.452313
 H         1.969762         1.658256         1.429444
 H         4.359019        -0.788274         0.008280
 H         2.282991        -1.392790         1.981109
 H         3.087466        -2.744490        -0.288449
 H         1.196807        -2.784790        -0.284726
 H         2.342733         0.015348        -2.711435
