19
Iteration:  3510charge 0 multiplicity 1
 C        -0.186095        -0.218915         0.176268
 C         1.283822        -0.068377         0.211722
 C         1.981382         1.274647         0.392928
 O         3.365431         1.050199         0.231383
 C         3.389110        -0.311207        -0.086686
 C         2.335048        -1.084972         0.880834
 C         2.114696        -2.166220        -0.065553
 C         2.191415        -0.849292        -0.927426
 O         1.886616        -0.781864        -2.287695
 H        -0.718839         0.182459         0.998495
 H        -0.464191         0.423649        -0.640924
 H        -0.337022        -1.225774        -0.188640
 H         1.568284         2.026383        -0.446595
 H         1.812035         1.905509         1.372620
 H         4.450287        -0.696729        -0.338062
 H         2.406087        -1.272953         1.947017
 H         2.926744        -2.962869        -0.145150
 H         1.150932        -2.565046        -0.024258
 H         1.912067         0.128191        -2.536678
