19
Iteration:   361
 C        -0.117153         0.233802         0.175513
 C         1.435082         0.021715         0.121744
 C         2.071835         1.359434         0.303049
 O         3.509958         0.866598         0.247068
 C         3.366008        -0.571903        -0.094384
 C         2.352641        -1.063072         0.900864
 C         1.744176        -2.266863         0.008023
 C         2.070792        -0.950633        -0.939794
 O         1.982321        -0.749359        -2.264607
 H        -0.477380         0.421552         1.204743
 H        -0.431390         1.245611        -0.299662
 H        -0.698681        -0.568887        -0.237669
 H         1.858807         2.173618        -0.468782
 H         1.891697         1.792424         1.298352
 H         4.327369        -1.135574        -0.334877
 H         2.444963        -1.084135         1.958271
 H         2.407550        -3.115516        -0.298440
 H         0.783110        -2.610394         0.421871
 H         1.003400        -1.003597        -2.585581
