19
Iteration:  1999
 C        -0.236978        -0.167521         0.312775
 C         1.293081        -0.094913         0.268661
 C         1.990987         1.360304         0.286024
 O         3.408693         1.040405         0.223223
 C         3.345497        -0.408707        -0.008918
 C         2.306338        -1.064409         0.951848
 C         2.057225        -2.171694        -0.248412
 C         2.127054        -0.826863        -0.939547
 O         2.081493        -0.711165        -2.344313
 H        -0.565809         0.344927         1.203135
 H        -0.722106         0.307618        -0.537808
 H        -0.412147        -1.230633         0.604085
 H         1.815849         1.906523        -0.599167
 H         1.711040         1.832886         1.167808
 H         4.310140        -0.888987        -0.098280
 H         2.348135        -1.201580         2.001716
 H         2.836242        -2.953420        -0.370316
 H         1.072586        -2.603831        -0.182748
 H         1.227471        -1.139616        -2.643087
