19
Iteration:  4232charge 0 multiplicity 1
 C        -0.164619        -0.344692         0.175748
 C         1.347872        -0.112389         0.198112
 C         1.951770         1.310148         0.460308
 O         3.448918         1.066411         0.220553
 C         3.369065        -0.358307        -0.066365
 C         2.313165        -1.034687         0.909761
 C         2.027759        -2.124368        -0.138022
 C         2.176482        -0.768608        -0.953998
 O         1.903955        -0.746624        -2.295466
 H        -1.082510         0.447817         0.042313
 H        -0.344869        -0.933624        -0.750748
 H        -0.343130        -1.037077         1.011294
 H         1.577304         2.156591        -0.239032
 H         1.965896         1.782955         1.486037
 H         4.288412        -0.848782        -0.248473
 H         2.361557        -1.060110         2.064652
 H         2.708275        -2.872581        -0.345655
 H         1.006450        -2.517364         0.058043
 H         2.015776         0.110351        -2.826551
