19
Iteration:  3528charge 0 multiplicity 1
 C        -0.220264        -0.368579         0.166937
 C         1.337337        -0.089599         0.200192
 C         1.961418         1.343581         0.363838
 O         3.443726         1.030308         0.193488
 C         3.358868        -0.419982        -0.033963
 C         2.387608        -0.965061         0.976017
 C         2.017955        -2.120766        -0.162116
 C         2.116987        -0.800501        -0.906543
 O         1.932397        -0.746974        -2.312738
 H        -0.649060         0.242082         1.011447
 H        -0.794777        -0.003496        -0.804958
 H        -0.486210        -1.353008         0.476337
 H         1.607626         2.169146        -0.149790
 H         1.678352         1.664102         1.424876
 H         4.293979        -0.783622        -0.157338
 H         2.644649        -0.948950         2.077849
 H         2.809023        -2.752702        -0.451459
 H         1.004651        -2.566642        -0.034364
 H         2.409705        -0.003033        -2.661173
