19
Iteration:  1495charge 0 multiplicity 1
 C        -0.232921        -0.085613         0.483807
 C         1.342205        -0.082418         0.104572
 C         2.024643         1.298104         0.204264
 O         3.438607         0.934422         0.166239
 C         3.357820        -0.452651        -0.004008
 C         2.220140        -1.090733         0.901772
 C         1.873424        -2.156438        -0.071236
 C         2.118303        -0.841051        -0.917081
 O         2.213285        -0.625954        -2.391153
 H        -0.564088         0.913428         0.922641
 H        -0.871986        -0.425328        -0.338466
 H        -0.476563        -0.833211         1.281856
 H         1.875036         1.861938        -0.726680
 H         1.775576         1.681921         1.171555
 H         4.366446        -0.788652        -0.097077
 H         2.262959        -1.107481         1.973953
 H         2.619468        -2.901510        -0.063610
 H         0.866102        -2.440601        -0.203561
 H         1.341644        -0.816046        -2.676478
