19
Iteration:   707
 C        -0.109265         0.015077         0.109076
 C         1.337962        -0.003544         0.302704
 C         2.141523         1.329665         0.368161
 O         3.527636         0.935149         0.165274
 C         3.372713        -0.459337        -0.064320
 C         2.336858        -1.171774         0.983508
 C         1.887231        -2.148981        -0.099314
 C         2.039275        -0.794023        -0.870268
 O         1.868029        -0.793198        -2.301405
 H        -0.606531         0.797138         0.820147
 H        -0.403375         0.384202        -0.870632
 H        -0.444706        -1.128755         0.040240
 H         1.928908         2.017346        -0.475367
 H         1.884580         1.798489         1.288154
 H         4.373551        -0.937523        -0.371331
 H         2.457248        -1.416265         2.117277
 H         2.523290        -2.973626        -0.438853
 H         0.863396        -2.629608         0.059663
 H         1.078643        -0.243405        -2.661626
