19
Iteration:  4463charge 0 multiplicity 1
 C        -0.162588        -0.324837         0.490962
 C         1.343936        -0.031111         0.173677
 C         1.940218         1.323188         0.198305
 O         3.337331         1.070465         0.051076
 C         3.332353        -0.385290         0.013024
 C         2.210284        -0.955926         0.935227
 C         1.959760        -2.117308        -0.104364
 C         2.161525        -0.859633        -0.903870
 O         2.190153        -0.809469        -2.362004
 H        -0.838284        -0.950627        -0.294801
 H        -0.129755        -0.895821         1.449285
 H        -0.834078         0.538104         0.625613
 H         1.502812         1.943333        -0.648519
 H         1.736425         1.866928         1.176883
 H         4.303537        -1.027144        -0.174033
 H         2.308010        -1.112250         1.981241
 H         2.743888        -2.907288        -0.217943
 H         0.850360        -2.393783         0.052501
 H         2.550858         0.122990        -2.542744
