19
Iteration:  2523
 C        -0.177939        -0.335503         0.324598
 C         1.257952         0.000635         0.154133
 C         1.923192         1.374556         0.198596
 O         3.400591         0.946795         0.135035
 C         3.355092        -0.480308         0.037361
 C         2.293660        -1.043020         0.971074
 C         2.035580        -2.091020        -0.016009
 C         2.142342        -0.794131        -0.914302
 O         1.987110        -0.638368        -2.324153
 H        -0.349198        -0.291338         1.346342
 H        -0.766408         0.449000        -0.281957
 H        -0.521314        -1.334089        -0.189873
 H         1.882614         2.133323        -0.675886
 H         1.862283         1.948539         1.105157
 H         4.470959        -0.887762        -0.173723
 H         2.418536        -1.164197         2.078344
 H         2.867002        -2.807691        -0.353010
 H         1.086990        -2.703123        -0.199277
 H         2.932146        -0.698122        -2.616031
