19
Iteration:  3875charge 0 multiplicity 1
 C        -0.133605        -0.480526         0.151498
 C         1.342176        -0.085305         0.295317
 C         2.024105         1.311839         0.457830
 O         3.411625         0.966403         0.298888
 C         3.362801        -0.458265         0.016388
 C         2.365989        -1.051407         0.853406
 C         2.017010        -2.132702        -0.332815
 C         2.133048        -0.746690        -0.928915
 O         1.839084        -0.490086        -2.325134
 H        -0.715237         0.483807         0.309737
 H        -0.331775        -0.473379        -0.976300
 H        -0.434636        -1.361228         0.831837
 H         1.703983         2.081618        -0.193346
 H         1.788694         1.720665         1.463130
 H         4.346249        -0.965245        -0.107979
 H         2.503103        -1.347703         1.936582
 H         2.816050        -2.800309        -0.484251
 H         1.050361        -2.578626         0.035076
 H         1.975251         0.488130        -2.467194
