19
Iteration:  3642charge 0 multiplicity 1
 C        -0.138588        -0.346786         0.265141
 C         1.316406        -0.019041         0.163238
 C         2.019189         1.283837         0.440078
 O         3.356942         0.970770         0.245513
 C         3.337288        -0.393540        -0.031893
 C         2.315928        -1.062322         0.916159
 C         2.017887        -2.081919        -0.185115
 C         2.195665        -0.732253        -0.978119
 O         1.948234        -0.727661        -2.345644
 H        -0.703287        -0.431777        -0.655828
 H        -0.179914        -1.371879         0.712181
 H        -0.730996         0.436761         0.767108
 H         1.706864         2.135917        -0.177901
 H         1.700603         1.718938         1.490263
 H         4.413846        -0.807822        -0.215272
 H         2.388033        -1.081767         1.983062
 H         2.792124        -2.868319        -0.303651
 H         1.033429        -2.379253        -0.281865
 H         1.985732         0.130760        -2.712914
