19
Iteration:  3259charge 0 multiplicity 1
 C        -0.244755        -0.062618         0.398845
 C         1.244887        -0.157486         0.246898
 C         1.922727         1.258963         0.328606
 O         3.281765         1.114122         0.058655
 C         3.373252        -0.303157        -0.031513
 C         2.242671        -1.184167         0.907937
 C         2.122912        -2.211724        -0.244418
 C         2.176608        -0.893802        -0.892381
 O         2.158897        -0.766029        -2.274896
 H        -0.311734         0.738992         1.098605
 H        -0.740452         0.335701        -0.443667
 H        -0.693314        -1.039851         0.695745
 H         1.576854         1.886737        -0.472658
 H         1.827700         1.770700         1.486022
 H         4.359589        -0.611969        -0.240174
 H         2.400710        -1.501219         1.982555
 H         2.981825        -2.891972        -0.416196
 H         1.192127        -2.632023        -0.177430
 H         2.349295         0.166662        -2.547946
