19
Iteration:  3553charge 0 multiplicity 1
 C        -0.165470        -0.309828         0.377176
 C         1.382143        -0.083770         0.218880
 C         1.954222         1.343482         0.354534
 O         3.368553         1.027314         0.069998
 C         3.318624        -0.388436        -0.033311
 C         2.217209        -1.105936         0.910219
 C         2.005372        -2.161532        -0.147629
 C         2.182985        -0.832183        -0.949233
 O         2.040191        -0.631373        -2.301313
 H        -0.789368         0.493635         0.752107
 H        -0.644143        -0.572449        -0.595363
 H        -0.257854        -1.146533         1.050945
 H         1.495300         2.131017        -0.376836
 H         1.597452         1.932864         1.363096
 H         4.428336        -0.716666        -0.133113
 H         2.121636        -1.308933         1.974774
 H         2.947645        -2.771545        -0.093712
 H         1.081543        -2.560327        -0.296619
 H         2.792051        -0.206920        -2.639680
