19
Iteration:  2173
 C        -0.227762        -0.188140         0.284244
 C         1.301820        -0.116597         0.155964
 C         1.993638         1.228275         0.276236
 O         3.412894         0.988589         0.170989
 C         3.405007        -0.411360         0.008421
 C         2.338343        -1.025839         0.929181
 C         2.035807        -2.172138        -0.064198
 C         2.185633        -0.912221        -0.933819
 O         1.891456        -0.514847        -2.297829
 H        -0.528402         0.638260         0.853420
 H        -0.638012        -0.207575        -0.753096
 H        -0.620515        -1.190802         0.672719
 H         1.792301         1.862074        -0.574124
 H         1.550394         1.880101         1.090593
 H         4.374690        -0.863220         0.019680
 H         2.433685        -1.011758         1.971253
 H         2.751432        -2.975193        -0.150744
 H         1.078402        -2.539543         0.055601
 H         2.598419        -0.840395        -2.949061
