19
Iteration:  2070
 C        -0.322505        -0.227561         0.369483
 C         1.296047        -0.044773         0.299293
 C         1.953241         1.289263         0.277898
 O         3.359821         0.989839         0.013289
 C         3.325576        -0.444588         0.011787
 C         2.328183        -1.050274         0.939694
 C         1.981930        -2.099770        -0.164555
 C         2.237106        -0.817174        -0.907870
 O         2.217446        -0.670255        -2.292801
 H        -0.625290        -0.406253         1.431731
 H        -0.828437         0.623516        -0.082707
 H        -0.478435        -1.194099        -0.061894
 H         1.431059         1.679338        -0.579154
 H         2.001573         1.879951         1.233095
 H         4.349026        -0.746525        -0.416755
 H         2.519841        -1.199381         2.111220
 H         2.721171        -2.921913        -0.254583
 H         0.874665        -2.447114        -0.194494
 H         1.270449        -0.489237        -2.548962
