19
Iteration:   566
 C        -0.244292         0.138353         0.181037
 C         1.320766         0.001763         0.227923
 C         2.196005         1.308832         0.334925
 O         3.587955         0.866225         0.071192
 C         3.277840        -0.504678         0.027446
 C         2.238824        -1.068365         0.967734
 C         2.008621        -2.166630        -0.089261
 C         2.010762        -0.879491        -0.917647
 O         1.866478        -0.835394        -2.299465
 H        -0.577901         0.207381         1.253310
 H        -0.569762         0.980456        -0.382029
 H        -0.727195        -0.741884        -0.336582
 H         2.168954         2.217879        -0.308920
 H         2.222202         1.785579         1.407240
 H         4.194522        -1.095558         0.075854
 H         2.339716        -1.293479         2.052353
 H         2.987566        -2.687899        -0.105330
 H         1.137452        -2.850907        -0.111751
 H         1.903270         0.163130        -2.604963
