19
Iteration:    95
 C        -0.136660         0.127954         0.384013
 C         1.356954         0.125356         0.195555
 C         2.149123         1.311611         0.312810
 O         3.508484         0.859630         0.137430
 C         3.355808        -0.580203        -0.015732
 C         2.211480        -1.137149         0.883121
 C         1.769996        -2.076582        -0.184689
 C         2.114093        -0.792041        -0.963291
 O         1.960038        -0.901263        -2.273060
 H        -0.539031         0.569195         1.303620
 H        -0.637089         0.595459        -0.424738
 H        -0.381148        -1.002011         0.360724
 H         1.612648         2.094685        -0.498360
 H         2.045063         1.964680         1.246675
 H         4.208135        -1.196406         0.167315
 H         2.426197        -1.293489         2.024459
 H         2.493248        -2.878022        -0.523700
 H         0.674350        -2.369473        -0.069457
 H         2.806616        -0.427118        -2.683557
