19
Iteration:  4258
 C        -0.179490        -0.219290         0.394039
 C         1.341875        -0.127836         0.157398
 C         1.889478         1.309072         0.353776
 O         3.285608         1.048959         0.193606
 C         3.392551        -0.423807        -0.023015
 C         2.322186        -1.074177         0.943689
 C         2.040233        -2.079667        -0.196074
 C         2.156333        -0.875446        -0.986082
 O         2.088508        -0.728786        -2.348259
 H        -0.686410         0.629689         0.671511
 H        -0.797600        -0.456468        -0.497940
 H        -0.226273        -1.046430         1.110037
 H         1.514030         2.051705        -0.401624
 H         1.884462         1.910865         1.367098
 H         4.477206        -0.799690        -0.148347
 H         2.387671        -1.304941         1.926346
 H         2.887911        -2.817779        -0.406408
 H         1.032316        -2.520446        -0.219783
 H         2.037704         0.269643        -2.576637
