19
Iteration:   674
 C        -0.173307         0.120006         0.303054
 C         1.312811        -0.031300         0.199544
 C         2.072859         1.240031         0.404730
 O         3.469606         0.918787         0.116028
 C         3.391603        -0.489432        -0.026234
 C         2.267600        -1.081856         0.946360
 C         1.915953        -2.155906        -0.079488
 C         2.133407        -0.880292        -0.982770
 O         2.018706        -0.736395        -2.401809
 H        -0.438826         1.073744         0.901397
 H        -0.625714         0.188119        -0.674978
 H        -0.736835        -0.614109         1.016499
 H         1.899490         2.095550        -0.279534
 H         1.913102         1.598013         1.429432
 H         4.267553        -1.134764        -0.165319
 H         2.444198        -1.214511         2.069423
 H         2.582144        -3.005235        -0.239976
 H         0.836649        -2.452846         0.014771
 H         1.059908        -0.961769        -2.613360
