19
Iteration:   815
 C        -0.088012         0.110737         0.555117
 C         1.287429         0.014285         0.104499
 C         2.050952         1.287514         0.355784
 O         3.396997         0.935931         0.090375
 C         3.272932        -0.514716         0.029644
 C         2.127481        -1.010956         0.863444
 C         1.906288        -2.150020        -0.103511
 C         2.135984        -0.921808        -1.001971
 O         2.128359        -0.853708        -2.452193
 H        -0.022856        -0.373794         1.585496
 H        -0.590517         0.969775         0.551535
 H        -0.680936        -0.724144        -0.032456
 H         1.723720         2.249935        -0.131963
 H         1.984923         1.508232         1.453250
 H         4.345143        -0.910914        -0.083116
 H         1.943832        -0.847706         2.015896
 H         2.677440        -2.828749        -0.346198
 H         0.857231        -2.495046        -0.128029
 H         3.090992        -0.502916        -2.669654
