19
Iteration:  4875
 C        -0.189282         0.003138         0.185176
 C         1.302844        -0.105104         0.141299
 C         1.881896         1.313207         0.183190
 O         3.288790         1.084804         0.048400
 C         3.360371        -0.365542        -0.057177
 C         2.336610        -0.963632         1.023373
 C         2.224284        -2.147718         0.099938
 C         2.192652        -0.929882        -0.853760
 O         1.955338        -1.005345        -2.259109
 H        -0.670685        -0.991372        -0.037193
 H        -0.689969         0.190232         1.120937
 H        -0.358660         0.852529        -0.443326
 H         1.393272         1.872619        -0.654440
 H         1.606651         1.676542         1.182890
 H         4.456009        -0.591428        -0.064229
 H         2.541520        -0.887773         2.058639
 H         3.191760        -2.836334         0.071134
 H         1.385339        -2.954271         0.192713
 H         1.976866        -0.116258        -2.646161
