19
Iteration:   351charge 0 multiplicity 1
 C        -0.121798         0.233969         0.248336
 C         1.353127        -0.045107         0.155936
 C         2.099272         1.295693         0.221900
 O         3.554315         0.863099         0.234993
 C         3.304324        -0.615818        -0.117581
 C         2.264739        -1.095974         0.948292
 C         1.826567        -2.175656         0.019901
 C         2.073338        -0.899005        -0.925027
 O         1.994273        -0.684494        -2.275814
 H        -0.498037         0.325692         1.263997
 H        -0.282250         1.164072        -0.410040
 H        -0.697278        -0.469602        -0.265890
 H         1.897825         1.914308        -0.743381
 H         1.874231         1.899201         1.151624
 H         4.363486        -1.038625        -0.234865
 H         2.536823        -1.094329         1.994025
 H         2.502479        -3.012655        -0.118231
 H         0.787159        -2.534677         0.124889
 H         1.206542        -1.245234        -2.648784
