19
Iteration:   367charge 0 multiplicity 1
 C        -0.108927         0.225714         0.131295
 C         1.416212         0.070582         0.126817
 C         2.137152         1.359486         0.351443
 O         3.464416         0.861565         0.221311
 C         3.403309        -0.524083        -0.054716
 C         2.376172        -1.064853         0.884734
 C         1.738804        -2.270439        -0.010431
 C         2.051025        -0.955568        -0.886672
 O         1.962161        -0.804260        -2.314331
 H        -0.410530         0.387634         1.189630
 H        -0.411127         1.136022        -0.292556
 H        -0.726651        -0.708687        -0.173863
 H         1.916116         2.189332        -0.310068
 H         1.918531         1.692107         1.401515
 H         4.282969        -1.054576        -0.308936
 H         2.406220        -1.102578         2.004877
 H         2.384788        -3.148151        -0.240184
 H         0.714144        -2.497508         0.307944
 H         1.001072        -0.760859        -2.525780
