19
Iteration:  3783
 C        -0.173120        -0.325664         0.457917
 C         1.268846        -0.064187         0.264097
 C         1.920207         1.247250         0.456117
 O         3.333135         1.000897         0.199155
 C         3.320678        -0.419737        -0.041874
 C         2.266639        -1.071509         0.900739
 C         1.972953        -2.139010        -0.341676
 C         2.186061        -0.782942        -1.011144
 O         2.148437        -0.605226        -2.408151
 H        -0.371204        -0.162254         1.526424
 H        -0.798983         0.461868         0.039848
 H        -0.317617        -1.366665         0.203876
 H         1.634517         2.085839        -0.164476
 H         1.813337         1.682661         1.418506
 H         4.393752        -0.752460        -0.112456
 H         2.468557        -1.190074         1.939042
 H         2.795477        -2.890828        -0.691944
 H         0.970410        -2.552457        -0.290554
 H         2.611040         0.172473        -2.663310
