19
Iteration:  1165
 C        -0.281453        -0.111482         0.552510
 C         1.312349         0.017782         0.127761
 C         2.154642         1.332048         0.204803
 O         3.510594         0.819608         0.013243
 C         3.277960        -0.519917         0.031778
 C         2.105787        -1.026978         0.923160
 C         1.811444        -2.152445        -0.160999
 C         2.127619        -0.853090        -0.953094
 O         2.280431        -0.609025        -2.303438
 H        -0.842272         0.883611         0.649212
 H        -0.814483        -0.771113         0.002252
 H        -0.319286        -0.338686         1.703573
 H         1.802608         2.004532        -0.540357
 H         2.189879         1.884685         1.158525
 H         4.223710        -1.143953        -0.098610
 H         2.236742        -1.115370         1.994900
 H         2.530967        -2.930826        -0.258698
 H         0.884947        -2.676302        -0.006099
 H         1.420098        -0.250831        -2.608263
