19
Iteration:  4487charge 0 multiplicity 1
 C        -0.204339        -0.258274         0.448910
 C         1.332818        -0.074816         0.142215
 C         1.923977         1.345196         0.200364
 O         3.279895         1.065554         0.052956
 C         3.351008        -0.401179        -0.043677
 C         2.311138        -0.999143         0.967908
 C         1.977255        -2.141700        -0.064731
 C         2.168965        -0.893876        -0.894118
 O         2.115649        -0.749092        -2.293946
 H        -0.842996        -0.373107        -0.608873
 H        -0.385277        -1.175602         1.064358
 H        -0.708678         0.661812         0.813569
 H         1.559854         2.046893        -0.641106
 H         1.845198         1.869132         1.153570
 H         4.432142        -0.807551        -0.060088
 H         2.555515        -1.201859         1.948780
 H         2.883272        -2.683532        -0.240470
 H         0.985491        -2.614556        -0.010985
 H         3.065899        -0.549244        -2.572197
