19
Iteration:   258
 C        -0.172814         0.243830         0.271215
 C         1.376300         0.034035         0.186439
 C         2.159571         1.305567         0.379273
 O         3.515263         0.869307         0.107090
 C         3.366290        -0.525965        -0.104097
 C         2.192778        -1.149649         0.941983
 C         1.842804        -2.164097        -0.112152
 C         2.043964        -0.903034        -0.856612
 O         1.992114        -0.775081        -2.270829
 H        -0.429813         1.146694         0.842789
 H        -0.597800         0.339724        -0.731892
 H        -0.748277        -0.637203         0.776708
 H         1.959721         2.019201        -0.366258
 H         2.074145         1.788500         1.323876
 H         4.343224        -0.998971        -0.345392
 H         1.987260        -1.125826         2.085388
 H         2.543281        -2.992590        -0.503221
 H         0.755538        -2.511407        -0.105792
 H         2.346755        -1.479658        -2.750295
