19
Iteration:  4471charge 0 multiplicity 1
 C        -0.129146        -0.336953         0.466489
 C         1.298985        -0.003027         0.173874
 C         1.903097         1.407087         0.200913
 O         3.349813         1.027021         0.031123
 C         3.300870        -0.357946         0.014987
 C         2.264794        -1.033128         0.937759
 C         1.981629        -2.152753        -0.087368
 C         2.150341        -0.839133        -0.938865
 O         2.170702        -0.799716        -2.317863
 H        -0.726889        -0.776859        -0.214349
 H        -0.117738        -1.040133         1.304343
 H        -0.599697         0.634299         0.667033
 H         1.567812         1.999490        -0.629542
 H         1.603347         1.858244         1.222378
 H         4.283065        -0.841831        -0.218319
 H         2.121874        -0.933858         2.104135
 H         2.651555        -3.096743        -0.151130
 H         0.858311        -2.444762        -0.070773
 H         2.840526        -0.056433        -2.571094
