19
Iteration:  3045
 C        -0.247374        -0.113507         0.331998
 C         1.307099        -0.131973         0.179823
 C         1.931800         1.277539         0.198395
 O         3.291534         1.033304         0.082205
 C         3.350019        -0.417377         0.019588
 C         2.281145        -1.124232         0.980766
 C         2.149156        -2.182941        -0.189521
 C         2.158135        -0.849208        -0.875609
 O         2.062760        -0.671834        -2.201360
 H        -0.529910         0.637365         1.067350
 H        -0.634898         0.210412        -0.572971
 H        -0.546617        -1.120914         0.598021
 H         1.625511         1.967699        -0.583039
 H         1.648280         2.002086         1.095238
 H         4.371613        -0.758776        -0.094414
 H         2.481234        -1.453670         1.933941
 H         3.005506        -2.899280        -0.381054
 H         1.242453        -2.803354        -0.171171
 H         2.557947         0.081390        -2.651465
