19
Iteration:  3252
 C        -0.281369        -0.048366         0.380928
 C         1.287511        -0.166231         0.255323
 C         1.923127         1.214109         0.320869
 O         3.282106         1.080477         0.094895
 C         3.372628        -0.291114        -0.048684
 C         2.307454        -1.163754         0.950146
 C         2.112547        -2.216518        -0.239586
 C         2.159850        -0.860332        -0.937044
 O         2.170310        -0.739526        -2.296977
 H        -0.488420         0.776243         1.217893
 H        -0.947907         0.334667        -0.431611
 H        -0.935661        -0.886895         0.977471
 H         1.388098         1.925773        -0.399448
 H         1.734021         1.769522         1.127916
 H         4.402329        -0.719583        -0.232066
 H         2.427591        -1.389974         1.956937
 H         2.971452        -2.910754        -0.333604
 H         1.177586        -2.866341        -0.095415
 H         2.509230         0.042903        -2.666396
