19
Iteration:   698
 C        -0.078127         0.056932         0.139496
 C         1.398740         0.027219         0.270801
 C         2.130598         1.313584         0.388533
 O         3.421773         0.936981         0.182635
 C         3.401832        -0.431498        -0.090411
 C         2.323937        -1.168920         0.914954
 C         1.842082        -2.183909        -0.145882
 C         2.028428        -0.835909        -0.868081
 O         1.936217        -0.836347        -2.231149
 H        -0.648383         0.782050         0.820284
 H        -0.230142         0.313278        -0.958975
 H        -0.667265        -0.824703         0.466876
 H         1.849982         2.075412        -0.391390
 H         2.093872         1.895413         1.387908
 H         4.332836        -0.931729        -0.554277
 H         2.614584        -1.274510         2.005146
 H         2.631732        -2.857315        -0.526377
 H         0.749131        -2.558320        -0.182483
 H         1.035812        -0.419866        -2.518241
