19
Iteration:   373charge 0 multiplicity 1
 C        -0.101890         0.191665         0.144495
 C         1.360421         0.058927         0.124893
 C         2.197477         1.325004         0.396388
 O         3.470548         0.871802         0.183683
 C         3.375509        -0.510631        -0.030490
 C         2.340636        -1.093797         0.922343
 C         1.779030        -2.193790        -0.022213
 C         2.039992        -0.918159        -0.882812
 O         1.942298        -0.852191        -2.343533
 H        -0.390150         0.332199         1.186682
 H        -0.437148         1.085503        -0.543991
 H        -0.629554        -0.634335        -0.206296
 H         1.995410         2.221289        -0.310347
 H         2.011775         1.627509         1.464265
 H         4.473276        -0.907988        -0.242875
 H         2.447161        -1.116070         2.020379
 H         2.346196        -3.103484        -0.140356
 H         0.690286        -2.384299         0.072873
 H         1.055218        -0.608300        -2.499302
