19
Iteration:  3210charge 0 multiplicity 1
 C        -0.171609        -0.318706         0.342447
 C         1.296694        -0.086569         0.126501
 C         1.949304         1.332799         0.279398
 O         3.420143         1.075553         0.166914
 C         3.351030        -0.405534        -0.018185
 C         2.264838        -1.086704         0.922148
 C         2.018277        -2.179413        -0.081150
 C         2.154138        -0.799396        -0.906128
 O         2.018741        -0.667725        -2.317587
 H        -0.633334         0.337292         1.147801
 H        -0.842123        -0.120051        -0.548451
 H        -0.296146        -1.415872         0.628141
 H         1.560334         2.028740        -0.572348
 H         1.707137         1.901818         1.291831
 H         4.429112        -0.828549        -0.156682
 H         2.161377        -1.014041         2.001718
 H         2.875915        -2.837607        -0.310327
 H         0.951538        -2.718143        -0.276399
 H         2.766598        -0.184762        -2.697988
