19
Iteration:  1452charge 0 multiplicity 1
 C        -0.208616        -0.064486         0.166172
 C         1.307034        -0.058296         0.225061
 C         2.020363         1.286298         0.245312
 O         3.502927         0.940869         0.073493
 C         3.352176        -0.455156        -0.013192
 C         2.314757        -1.189310         1.064210
 C         1.993420        -2.155098        -0.104647
 C         2.123916        -0.808708        -0.865246
 O         1.926780        -0.558699        -2.196874
 H        -0.514286         0.943466         0.542152
 H        -0.405676        -0.219340        -0.810096
 H        -0.711332        -0.928734         0.593722
 H         1.818112         1.847103        -0.684069
 H         2.073608         1.819706         1.174517
 H         4.272659        -0.937899        -0.251808
 H         2.310838        -1.413317         2.125665
 H         2.658869        -2.869681        -0.504807
 H         0.986600        -2.515208        -0.080483
 H         1.855551        -1.346898        -2.657972
