19
Iteration:  1441
 C        -0.211352        -0.087366         0.064702
 C         1.361182        -0.107627         0.181193
 C         2.106469         1.298805         0.306819
 O         3.527000         0.963830         0.098246
 C         3.354874        -0.479694         0.005804
 C         2.286582        -1.051390         0.985079
 C         2.018431        -2.193269        -0.090117
 C         2.133943        -0.899711        -0.847774
 O         1.817111        -0.540415        -2.207643
 H        -0.655168         0.739368         0.692199
 H        -0.643249         0.093017        -0.823910
 H        -0.627405        -0.894243         0.664489
 H         1.706875         2.111465        -0.339985
 H         1.885416         1.686615         1.301804
 H         4.295469        -0.940553        -0.185524
 H         2.248546        -1.251863         2.047710
 H         2.727559        -2.978035        -0.157404
 H         1.047725        -2.594499         0.085738
 H         1.965261        -1.347167        -2.726090
