19
Iteration:   887
 C        -0.186374        -0.028581         0.061433
 C         1.384917        -0.087776         0.172213
 C         2.099377         1.232003         0.255111
 O         3.524545         0.897936         0.160003
 C         3.423701        -0.500399         0.006084
 C         2.321754        -1.048541         1.011818
 C         1.891877        -2.184697        -0.093275
 C         2.173922        -0.926676        -0.861459
 O         1.757689        -0.576937        -2.199650
 H        -0.495364         0.834573         0.615310
 H        -0.345577        -0.048804        -1.148217
 H        -0.559270        -0.940615         0.501396
 H         1.892444         1.882085        -0.596173
 H         1.900330         1.901368         1.094857
 H         4.451560        -0.875773        -0.145463
 H         2.368180        -1.226739         2.094215
 H         2.564209        -3.087190        -0.150581
 H         0.817529        -2.355203         0.003122
 H         1.635585         0.457051        -2.175745
