19
Iteration:  2517
 C        -0.188594        -0.290085         0.299645
 C         1.317514        -0.030169         0.166407
 C         1.939633         1.325277         0.164758
 O         3.396023         0.931538         0.116935
 C         3.320831        -0.460253         0.043606
 C         2.335955        -1.035629         0.982040
 C         2.069969        -2.104724        -0.038163
 C         2.101541        -0.808751        -0.826378
 O         1.993658        -0.620441        -2.339705
 H        -0.678481        -0.321520         1.391118
 H        -0.697691         0.436136        -0.265153
 H        -0.351231        -1.128569        -0.290431
 H         1.673201         2.049763        -0.560304
 H         1.828774         1.876681         1.146893
 H         4.201047        -0.821247        -0.302276
 H         2.179005        -1.196412         2.037834
 H         2.932392        -2.708266        -0.200330
 H         1.138132        -2.596432        -0.083298
 H         2.829010        -0.564449        -2.734316
