19
Iteration:  2129
 C        -0.229364        -0.126030         0.215553
 C         1.328755        -0.136785         0.262606
 C         2.007603         1.352321         0.357202
 O         3.420626         1.045846         0.231256
 C         3.387625        -0.343776         0.087607
 C         2.347100        -1.073463         0.909618
 C         2.120986        -2.139069        -0.216986
 C         2.154620        -0.841949        -1.004244
 O         1.885744        -0.762624        -2.314487
 H        -0.581266         0.508108         0.997569
 H        -0.544526         0.363343        -0.763850
 H        -0.852309        -1.100543         0.232385
 H         1.432064         1.942035        -0.430389
 H         1.858363         1.911409         1.341298
 H         4.337077        -0.730226        -0.085409
 H         2.385677        -1.393384         1.927328
 H         2.870202        -2.904100        -0.362458
 H         1.178016        -2.577214        -0.126708
 H         1.666084        -1.690263        -2.653397
