19
Iteration:   605
 C        -0.111131        -0.009121         0.388195
 C         1.368052        -0.046700         0.250141
 C         2.095516         1.334286         0.120465
 O         3.511194         0.907259         0.125301
 C         3.343841        -0.505858         0.039474
 C         2.269020        -1.140172         0.954738
 C         1.707822        -2.131931        -0.045206
 C         2.154381        -0.924144        -0.937577
 O         1.966000        -0.606828        -2.340818
 H        -0.419602         0.517369         1.278341
 H        -0.423010         0.601406        -0.509835
 H        -0.726452        -0.956496         0.427496
 H         1.657985         1.654185        -0.810381
 H         1.861728         2.015320         0.849290
 H         4.301276        -0.995635        -0.007446
 H         2.556842        -1.344699         1.939497
 H         2.227973        -3.091377        -0.140428
 H         0.661475        -2.341831         0.013915
 H         2.793186        -0.633217        -2.757440
