19
Iteration:  4457charge 0 multiplicity 1
 C        -0.206006        -0.310589         0.496518
 C         1.299539        -0.077323         0.154773
 C         1.945849         1.291821         0.200594
 O         3.342026         1.087799         0.065039
 C         3.347154        -0.437926        -0.010020
 C         2.239660        -0.925903         0.945694
 C         1.932618        -2.074168        -0.096138
 C         2.180465        -0.865069        -0.920095
 O         2.198368        -0.802465        -2.362619
 H        -0.527302        -0.994852        -0.261139
 H        -0.315251        -0.722680         1.503124
 H        -0.873335         0.545138         0.677857
 H         1.592123         1.934675        -0.605219
 H         1.880004         1.892626         1.097780
 H         4.339246        -0.773448        -0.010930
 H         2.399860        -1.194740         2.014697
 H         2.707952        -2.815138        -0.219161
 H         1.006586        -2.593739        -0.044002
 H         2.329559         0.095094        -2.580426
