19
Iteration:  3819charge 0 multiplicity 1
 C        -0.216113        -0.053086         0.298835
 C         1.301819        -0.090832         0.221816
 C         1.916030         1.253684         0.528225
 O         3.273552         0.986221         0.234952
 C         3.351062        -0.379932        -0.028726
 C         2.409781        -1.233632         0.919150
 C         2.216268        -2.256236        -0.327818
 C         2.182167        -0.821036        -0.962604
 O         1.937126        -0.569269        -2.407838
 H        -0.604955         0.679415         1.017785
 H        -0.713699        -0.034963        -0.762524
 H        -0.742864        -0.988422         0.717735
 H         1.572785         1.918877        -0.124231
 H         1.684343         1.536887         1.563123
 H         4.303916        -0.753216        -0.024409
 H         2.668403        -1.457930         2.005819
 H         3.062815        -2.822689        -0.608309
 H         1.280610        -2.944211        -0.274243
 H         2.236367         0.317677        -2.458378
