19
Iteration:  4705
 C        -0.142386        -0.336157         0.227112
 C         1.334608         0.008204         0.136897
 C         1.999231         1.407982         0.184245
 O         3.377994         1.090350         0.045848
 C         3.329457        -0.335248        -0.003721
 C         2.306145        -0.952326         1.019808
 C         2.034391        -2.092822         0.005386
 C         2.162275        -0.830740        -0.819551
 O         1.963347        -0.986318        -2.260914
 H        -0.496834        -1.190864         0.730247
 H        -0.782463         0.548682         0.268112
 H        -0.328472        -0.676551        -0.815230
 H         1.721585         2.212060        -0.432766
 H         1.983267         1.804966         1.217036
 H         4.366994        -0.895450        -0.150241
 H         2.476413        -0.922283         2.095976
 H         2.771724        -3.011978         0.010803
 H         1.019158        -2.612635         0.163303
 H         1.578292        -0.199239        -2.572412
