19
Iteration:  1544charge 0 multiplicity 1
 C        -0.205610        -0.031639         0.332343
 C         1.310578        -0.037471         0.238558
 C         1.989950         1.337927         0.386357
 O         3.407290         1.004325         0.096704
 C         3.351715        -0.461455        -0.070713
 C         2.269680        -1.128937         0.933592
 C         1.938478        -2.106797        -0.151751
 C         2.149091        -0.845294        -0.896308
 O         2.104566        -0.843185        -2.329897
 H        -0.599141         0.659693         1.038973
 H        -0.709905         0.023043        -0.638992
 H        -0.642778        -0.956848         0.673940
 H         1.642337         1.877726        -0.465455
 H         1.902531         1.732686         1.414757
 H         4.386051        -0.939061        -0.210145
 H         2.453865        -1.320036         2.022364
 H         2.647173        -2.892615        -0.558735
 H         0.882290        -2.365874         0.115435
 H         2.260207         0.030251        -2.850570
