19
Iteration:  2435charge 0 multiplicity 1
 C        -0.241969        -0.217260         0.302788
 C         1.259738         0.027159         0.138144
 C         2.056609         1.380658         0.370600
 O         3.378743         1.004297         0.223169
 C         3.364197        -0.347771        -0.058632
 C         2.235724        -1.043994         0.912538
 C         2.065357        -2.113406        -0.114875
 C         2.184028        -0.877771        -0.918591
 O         2.027296        -0.867179        -2.370556
 H        -0.601894         0.263928         1.130730
 H        -0.960721        -0.154805        -0.579509
 H        -0.352808        -1.239447         0.798178
 H         1.744842         2.053661        -0.456889
 H         1.928552         1.684133         1.374757
 H         4.500690        -0.675080        -0.180812
 H         2.335281        -1.273916         1.972514
 H         2.843181        -2.893505        -0.393426
 H         1.047162        -2.549701        -0.163151
 H         1.990463         0.046448        -2.653325
