19
Iteration:  3861
 C        -0.195918        -0.319203         0.083240
 C         1.345486        -0.105736         0.268189
 C         1.990670         1.310972         0.486526
 O         3.416154         0.991910         0.312748
 C         3.405390        -0.374728        -0.074187
 C         2.378105        -1.216414         0.910311
 C         2.072016        -2.140520        -0.263976
 C         2.159995        -0.785515        -0.948823
 O         1.808718        -0.516007        -2.237931
 H        -0.858782         0.446687         0.394816
 H        -0.395049        -0.723265        -0.914981
 H        -0.502838        -1.258091         0.615240
 H         1.722707         2.101728        -0.384734
 H         1.935748         1.725797         1.468599
 H         4.376758        -0.628263        -0.330307
 H         2.593027        -1.436494         1.982966
 H         2.757437        -2.937595        -0.553830
 H         1.072887        -2.630162        -0.520791
 H         1.883347         0.452020        -2.401074
