19
Iteration:  4822
 C        -0.130784        -0.321948         0.457893
 C         1.274706        -0.042256         0.124510
 C         1.903044         1.396677         0.089059
 O         3.371743         1.007014        -0.076906
 C         3.309017        -0.354418         0.022276
 C         2.245192        -0.816680         0.989722
 C         1.961521        -2.100665         0.065486
 C         2.188058        -0.977671        -0.873678
 O         2.169013        -0.872690        -2.297397
 H        -0.577058        -1.172662        -0.189212
 H        -0.160125        -0.470193         1.566655
 H        -0.857672         0.492004         0.198149
 H         1.404119         1.906768        -0.863160
 H         1.647767         2.035646         0.974826
 H         4.435986        -0.653781        -0.016444
 H         2.205528        -0.776609         2.020609
 H         2.427993        -3.020434         0.119613
 H         0.918528        -2.456252         0.182816
 H         2.951900        -0.285554        -2.442018
