19
Iteration:  4167
 C        -0.182794        -0.142906         0.293515
 C         1.302149        -0.123091         0.203353
 C         1.872793         1.260457         0.308667
 O         3.278751         0.994245         0.175947
 C         3.312635        -0.411297        -0.023792
 C         2.412585        -1.136166         0.932159
 C         2.202225        -2.218041        -0.193597
 C         2.166641        -0.818870        -0.942003
 O         1.992074        -0.602974        -2.263631
 H        -0.565225         0.118994        -0.689875
 H        -0.734676        -1.030933         0.479072
 H        -0.448744         0.444924         1.150037
 H         1.318051         1.835861        -0.520646
 H         1.682379         1.808603         1.321460
 H         4.332926        -0.663913        -0.136523
 H         2.522505        -1.209294         2.067382
 H         2.916723        -2.939209        -0.492624
 H         1.150716        -2.592372        -0.125640
 H         2.509438         0.191776        -2.511727
