19
Iteration:  2938charge 0 multiplicity 1
 C        -0.189260        -0.105907         0.403801
 C         1.297029        -0.077238         0.113480
 C         1.915892         1.252288         0.265612
 O         3.298567         1.047012         0.248024
 C         3.339735        -0.411184        -0.010943
 C         2.338707        -1.063029         0.854916
 C         2.105253        -2.165995        -0.144423
 C         2.104765        -0.849912        -0.985805
 O         2.119091        -0.798145        -2.307875
 H        -0.357299         0.101041         1.480811
 H        -0.797198         0.723218        -0.187127
 H        -0.770056        -1.008927         0.180785
 H         1.644931         2.000895        -0.479161
 H         1.742383         1.554372         1.186479
 H         4.344241        -0.750686        -0.167694
 H         2.500719        -1.047765         1.964447
 H         2.902112        -2.860226        -0.257180
 H         1.161109        -2.693835        -0.075228
 H         2.057138         0.193734        -2.573907
