19
Iteration:  4605
 C        -0.206048        -0.222966         0.358869
 C         1.302648        -0.058617         0.165461
 C         1.907127         1.300815         0.204296
 O         3.383474         1.067935         0.023698
 C         3.337929        -0.345801         0.015525
 C         2.292957        -0.958777         0.941652
 C         2.056527        -2.160882         0.037610
 C         2.207778        -0.892709        -0.897613
 O         2.014648        -0.756146        -2.305817
 H        -0.693102         0.441298         0.958911
 H        -0.577478        -0.357551        -0.634918
 H        -0.378225        -1.186462         0.812244
 H         1.649243         1.914605        -0.638008
 H         1.673636         1.801766         1.175672
 H         4.472076        -0.668627        -0.139271
 H         2.281959        -1.038523         1.975018
 H         2.903521        -2.849499        -0.133282
 H         0.953371        -2.400106         0.017238
 H         2.610518        -1.421451        -2.715552
