19
Iteration:   978charge 0 multiplicity 1
 C        -0.113543         0.059840         0.592823
 C         1.275911        -0.034973         0.176205
 C         2.061456         1.306530         0.405236
 O         3.394987         0.902071         0.145205
 C         3.262007        -0.539702        -0.038310
 C         2.144145        -1.033217         0.846920
 C         1.853508        -2.130303        -0.232407
 C         2.187743        -0.832441        -1.038245
 O         2.194200        -0.809426        -2.423923
 H        -0.852112         0.341279        -0.118579
 H        -0.438215        -0.942920         0.925187
 H        -0.266351         0.865837         1.419265
 H         1.759477         2.081630        -0.243653
 H         1.845106         1.723378         1.431847
 H         4.155420        -1.179691        -0.203732
 H         2.108488        -1.279329         1.959805
 H         2.641825        -2.852514        -0.287650
 H         0.837566        -2.576356        -0.230822
 H         2.784646        -0.072089        -2.674201
