19
Iteration:  2147
 C        -0.141312        -0.087249         0.204062
 C         1.340726        -0.009188         0.258214
 C         1.958901         1.305217         0.275991
 O         3.382167         1.042142         0.266151
 C         3.354098        -0.375338        -0.065399
 C         2.350105        -1.210921         0.947635
 C         2.098100        -2.184298        -0.193045
 C         2.084653        -0.814798        -0.837409
 O         1.901889        -0.696738        -2.305664
 H        -0.590451         0.698923         0.858469
 H        -0.542792        -0.070817        -0.821172
 H        -0.361970        -1.085516         0.475058
 H         1.671431         2.021284        -0.532158
 H         1.584347         1.853784         1.120907
 H         4.384675        -0.765542        -0.208497
 H         2.526693        -1.206402         2.137566
 H         2.999330        -2.761584        -0.495209
 H         1.155034        -2.890969        -0.265198
 H         2.135888        -1.642809        -2.633454
