19
Iteration:  3971
 C        -0.198322        -0.280803         0.508531
 C         1.284518        -0.129433         0.157145
 C         1.922839         1.229597         0.464447
 O         3.323909         1.021328         0.184334
 C         3.340507        -0.421144         0.014685
 C         2.295229        -1.096278         0.920524
 C         2.113100        -2.150200        -0.345658
 C         2.124951        -0.753724        -1.015197
 O         2.109431        -0.555824        -2.408316
 H        -0.448038        -0.215573         1.525156
 H        -0.762198         0.573752         0.112514
 H        -0.521016        -1.167522        -0.043241
 H         1.532052         2.094945        -0.183880
 H         1.678471         1.424271         1.475379
 H         4.296463        -0.812024        -0.115267
 H         2.323051        -1.564082         1.964146
 H         2.893942        -2.905844        -0.559133
 H         1.093715        -2.792210        -0.315049
 H         2.441861         0.294269        -2.659727
