19
Iteration:  2927charge 0 multiplicity 1
 C        -0.210969        -0.039965         0.452191
 C         1.270197        -0.210194         0.133075
 C         1.869395         1.221914         0.298172
 O         3.307685         1.011351         0.173280
 C         3.388466        -0.350345        -0.003791
 C         2.300821        -1.076680         0.924968
 C         2.108503        -2.200413        -0.110220
 C         2.180439        -0.835613        -0.967986
 O         2.136184        -0.735381        -2.405075
 H        -0.309521         0.262325         1.512977
 H        -0.602235         0.883053        -0.185999
 H        -0.797319        -0.946681         0.252693
 H         1.505154         1.783027        -0.562485
 H         1.582170         1.757724         1.087984
 H         4.391326        -0.709694        -0.005593
 H         2.311008        -1.078034         2.041331
 H         2.870598        -2.916649        -0.270692
 H         1.109916        -2.625253        -0.105896
 H         2.013734         0.209700        -2.700748
