19
Iteration:   794
 C        -0.180106         0.046759         0.530708
 C         1.275773        -0.022329         0.232395
 C         2.012779         1.346233         0.323826
 O         3.441141         0.954271         0.094999
 C         3.282453        -0.491348        -0.090952
 C         2.270010        -1.086015         0.878244
 C         1.796152        -2.154633        -0.153512
 C         2.098981        -0.870585        -0.972570
 O         2.208932        -0.844678        -2.365692
 H        -0.413619        -0.229757         1.660970
 H        -0.479551         1.073381         0.486923
 H        -0.974218        -0.424622        -0.231401
 H         1.793378         2.068285        -0.502167
 H         1.821461         1.909250         1.205718
 H         4.357497        -0.830598        -0.384692
 H         2.501757        -1.400660         1.979710
 H         2.543572        -2.910714        -0.234332
 H         0.705630        -2.402080        -0.072331
 H         3.126052        -0.682754        -2.486327
