19
Iteration:  3568
 C        -0.194698        -0.239838         0.443900
 C         1.261249        -0.123474         0.216936
 C         1.900373         1.272912         0.278188
 O         3.336492         1.079063         0.087270
 C         3.350486        -0.396704        -0.050386
 C         2.253538        -1.101855         0.950275
 C         2.051388        -2.231061        -0.193468
 C         2.192105        -0.869063        -0.937784
 O         2.113740        -0.563662        -2.302404
 H        -0.620103         0.801818         0.647623
 H        -0.734732        -0.594538        -0.386084
 H        -0.584731        -0.732397         1.412460
 H         1.516250         1.944636        -0.597279
 H         1.937382         1.749576         1.260368
 H         4.370342        -0.877306        -0.189870
 H         2.456205        -1.220499         2.011953
 H         2.771596        -3.028674        -0.413359
 H         0.977035        -2.736702        -0.175868
 H         2.985758        -0.130127        -2.547438
