19
Iteration:  4597
 C        -0.167664        -0.297029         0.316420
 C         1.344855        -0.035454         0.107776
 C         1.975634         1.332841         0.202345
 O         3.325474         1.079774         0.092203
 C         3.374728        -0.378784        -0.051595
 C         2.334976        -0.957985         0.999967
 C         2.021603        -2.079131         0.005309
 C         2.165808        -0.870561        -0.910954
 O         1.979181        -0.770245        -2.269943
 H        -0.722196         0.567568         0.685907
 H        -0.640279        -0.504551        -0.658116
 H        -0.329916        -1.253748         0.797819
 H         1.476222         2.006831        -0.595180
 H         1.779618         1.796846         1.188037
 H         4.328091        -0.929346        -0.131958
 H         2.362907        -1.038132         2.088672
 H         2.759531        -2.928116         0.149807
 H         1.058391        -2.616069         0.022199
 H         2.507202        -1.459544        -2.660744
