19
Iteration:  2661
 C        -0.274527        -0.251206         0.233404
 C         1.260836        -0.085631         0.261992
 C         1.984274         1.336009         0.203174
 O         3.430016         1.009022         0.233428
 C         3.362972        -0.382104        -0.051836
 C         2.374071        -1.024012         0.961871
 C         2.064289        -2.159855        -0.144098
 C         2.171392        -0.837600        -0.918837
 O         2.015302        -0.623145        -2.246670
 H        -0.921774         0.104358         1.081390
 H        -0.702464         0.208888        -0.638002
 H        -0.666665        -1.274684         0.021298
 H         1.835899         1.869170        -0.747861
 H         1.829122         1.847426         1.210005
 H         4.377382        -0.808080        -0.156916
 H         2.418761        -1.233858         2.052537
 H         2.891915        -2.877076        -0.312036
 H         1.227348        -2.805899        -0.087363
 H         1.327911        -1.190803        -2.674923
