19
Iteration:  1113charge 0 multiplicity 1
 C        -0.167528         0.156995         0.369291
 C         1.368947        -0.046575         0.126112
 C         2.030165         1.263564         0.383813
 O         3.461989         0.952508         0.252836
 C         3.417295        -0.518704         0.011949
 C         2.312601        -1.120920         0.897357
 C         1.885142        -2.158694        -0.221320
 C         2.111253        -0.902453        -0.979445
 O         1.971912        -0.702894        -2.333582
 H        -0.612374         0.635916        -0.598120
 H        -0.582833        -0.838031         0.359695
 H        -0.497146         0.852665         1.142179
 H         1.729471         2.031216        -0.378272
 H         1.716058         1.703449         1.389201
 H         4.397345        -1.061313        -0.235430
 H         2.483459        -1.320719         1.961775
 H         2.473417        -3.104043        -0.315931
 H         0.785582        -2.332199        -0.261559
 H         1.732078        -1.489380        -2.745421
