19
Iteration:  1448charge 0 multiplicity 1
 C        -0.206310        -0.066612         0.132929
 C         1.324529        -0.080169         0.201450
 C         2.042541         1.290462         0.263355
 O         3.532143         0.962003         0.081902
 C         3.316560        -0.468204        -0.009130
 C         2.307279        -1.142203         1.053986
 C         2.013531        -2.160699        -0.105463
 C         2.143110        -0.848208        -0.849711
 O         1.881858        -0.542250        -2.199255
 H        -0.543535         0.806482         0.624876
 H        -0.583778        -0.123691        -1.009889
 H        -0.745534        -0.929648         0.669018
 H         1.796575         1.934942        -0.583673
 H         2.060566         1.735210         1.265942
 H         4.370036        -0.951092        -0.306488
 H         2.213039        -1.411853         2.136930
 H         2.722983        -2.967367        -0.448236
 H         0.960369        -2.499292         0.071332
 H         1.888455        -1.443128        -2.708182
