19
Iteration:  3341charge 0 multiplicity 1
 C        -0.127215        -0.177591         0.202740
 C         1.353699        -0.148938         0.249535
 C         1.882000         1.266489         0.201562
 O         3.359322         1.045337         0.150637
 C         3.330659        -0.397639         0.071526
 C         2.362245        -1.117765         1.020878
 C         2.140232        -2.120022        -0.171917
 C         2.195063        -0.789777        -0.909473
 O         1.850903        -0.702263        -2.267528
 H        -0.501428        -0.636534         1.157852
 H        -0.385314         0.941696        -0.088384
 H        -0.498477        -0.811136        -0.624816
 H         1.550808         1.988008        -0.656309
 H         1.675796         1.891082         1.167385
 H         4.404718        -0.659119        -0.066757
 H         2.243998        -1.333752         2.087035
 H         2.913900        -2.852020        -0.177753
 H         1.154404        -2.738044        -0.016299
 H         2.486447        -0.307954        -2.808763
