19
Iteration:   322charge 0 multiplicity 1
 C        -0.186561         0.103109         0.395542
 C         1.311790         0.079925         0.196808
 C         2.196135         1.395083         0.071018
 O         3.606824         0.789918         0.041265
 C         3.308466        -0.667448         0.117947
 C         2.107845        -1.090997         0.977672
 C         1.842771        -2.159086        -0.174205
 C         2.100591        -0.870471        -0.875333
 O         2.028446        -0.621608        -2.229410
 H        -0.566630         0.311920         1.402047
 H        -0.607387         0.895084        -0.270742
 H        -0.524784        -0.960260         0.131610
 H         1.885040         1.877087        -0.865683
 H         2.004705         2.204407         0.881087
 H         4.306209        -1.305960         0.289925
 H         2.108996        -1.221539         2.145751
 H         2.696375        -2.812473        -0.371665
 H         0.816281        -2.632120        -0.146587
 H         1.608668        -1.381030        -2.622924
