19
Iteration:  1244
 C        -0.115905         0.044110         0.100245
 C         1.426878         0.000842         0.159895
 C         2.128058         1.352030         0.394450
 O         3.490547         0.902567         0.254430
 C         3.350053        -0.457968         0.033884
 C         2.283725        -1.042098         0.918276
 C         2.097060        -2.212136        -0.129067
 C         2.103026        -0.893805        -0.926465
 O         1.599129        -0.771739        -2.276776
 H        -0.368720         1.148911         0.304222
 H        -0.475188        -0.015797        -0.853981
 H        -0.829321        -0.644023         0.566839
 H         2.052834         2.153886        -0.302395
 H         2.052217         1.639423         1.462806
 H         4.305720        -1.094814        -0.059292
 H         2.155803        -1.200557         2.011491
 H         2.951237        -2.914753        -0.147647
 H         1.075473        -2.609551        -0.263909
 H         2.415192        -0.902877        -2.891629
