19
Iteration:   103charge 0 multiplicity 1
 C        -0.136353         0.126479         0.437214
 C         1.371278         0.041552         0.257792
 C         2.106791         1.381210         0.292716
 O         3.489752         0.866352         0.137463
 C         3.373024        -0.535163        -0.085050
 C         2.186283        -1.108919         0.908780
 C         1.706962        -2.093414        -0.206991
 C         2.137196        -0.834874        -0.911004
 O         2.015163        -0.889281        -2.299272
 H        -0.444716         0.566505         1.380897
 H        -0.531154         0.770019        -0.403228
 H        -0.632223        -0.771919         0.267137
 H         1.857843         2.020987        -0.556387
 H         2.029310         1.844748         1.260594
 H         4.410871        -1.044243        -0.154026
 H         2.328566        -1.389972         1.992048
 H         2.373493        -2.953246        -0.383539
 H         0.680402        -2.453352        -0.332933
 H         2.959917        -0.804182        -2.725242
