19
Iteration:  4967charge 0 multiplicity 1
 C        -0.182495        -0.167983         0.366487
 C         1.343813        -0.107006         0.146689
 C         1.881673         1.335859         0.096537
 O         3.245659         1.050782        -0.072547
 C         3.320553        -0.414737         0.021360
 C         2.279703        -0.986921         1.041256
 C         2.127945        -2.191617         0.057979
 C         2.151566        -0.931931        -0.904075
 O         2.129649        -0.768457        -2.226759
 H        -0.313967        -0.516889         1.371691
 H        -0.665688         0.869752         0.417682
 H        -0.781891        -0.558213        -0.540716
 H         1.450448         1.737697        -0.917184
 H         1.718488         1.935857         1.034193
 H         4.413983        -0.695681        -0.201254
 H         2.342222        -0.907544         2.208099
 H         2.891989        -2.946730        -0.079401
 H         1.177977        -2.737910         0.128240
 H         2.740008         0.017047        -2.475659
