19
Iteration:  3992charge 0 multiplicity 1
 C        -0.146444        -0.408433         0.286009
 C         1.351936        -0.054576         0.227849
 C         1.965522         1.298863         0.479499
 O         3.360583         0.996428         0.255579
 C         3.352553        -0.360958        -0.065853
 C         2.306993        -1.087876         0.846619
 C         1.995319        -2.146253        -0.300258
 C         2.195633        -0.757278        -0.959381
 O         1.992448        -0.592343        -2.298026
 H        -0.488331        -0.780664         1.249954
 H        -0.896895         0.373089         0.264485
 H        -0.437130        -1.211524        -0.439214
 H         1.602551         1.912401        -0.305777
 H         1.866990         1.813850         1.405064
 H         4.260546        -0.789447        -0.329194
 H         2.505302        -1.290016         1.970688
 H         2.765673        -2.953562        -0.392453
 H         0.880550        -2.591059        -0.337896
 H         2.091183         0.403295        -2.502345
