19
Iteration:  4823charge 0 multiplicity 1
 C        -0.142102        -0.317562         0.450910
 C         1.278352        -0.037764         0.130586
 C         1.902371         1.389037         0.090490
 O         3.370635         1.009595        -0.081366
 C         3.317161        -0.358602         0.027074
 C         2.243623        -0.818799         0.984511
 C         1.965697        -2.097911         0.069039
 C         2.187050        -0.975913        -0.875432
 O         2.168564        -0.875276        -2.292072
 H        -0.582887        -1.185215        -0.159931
 H        -0.178172        -0.486865         1.571689
 H        -0.884625         0.517944         0.208746
 H         1.416479         1.879340        -0.852182
 H         1.653480         2.031087         0.972802
 H         4.465677        -0.639513        -0.042149
 H         2.203153        -0.798445         2.028571
 H         2.408423        -2.986631         0.101992
 H         0.939458        -2.466029         0.165130
 H         2.964049        -0.260086        -2.479322
