19
Iteration:  1022charge 0 multiplicity 1
 C        -0.161154        -0.030388         0.369820
 C         1.369200        -0.037896         0.248938
 C         2.086043         1.273017         0.238572
 O         3.446469         0.827675         0.099438
 C         3.328214        -0.575525        -0.042778
 C         2.226603        -1.140613         0.920582
 C         1.852234        -2.164466        -0.175454
 C         2.091452        -0.836318        -0.899966
 O         2.055367        -0.547935        -2.256200
 H        -0.695199        -0.143457        -0.558323
 H        -0.617196        -0.678462         1.054291
 H        -0.451821         1.040842         0.610751
 H         1.698241         1.763892        -0.623568
 H         2.000422         2.004047         1.063005
 H         4.358958        -0.820765        -0.140880
 H         2.315051        -1.260808         2.013629
 H         2.540110        -2.973838        -0.288890
 H         0.799036        -2.442262        -0.162893
 H         2.568624         0.319461        -2.299812
