19
Iteration:  1483charge 0 multiplicity 1
 C        -0.141636        -0.077466         0.418704
 C         1.304585        -0.053057         0.240462
 C         1.993763         1.313405         0.180299
 O         3.422173         0.947692         0.179620
 C         3.314858        -0.464541        -0.054882
 C         2.255532        -1.071926         0.983718
 C         1.893759        -2.196482        -0.137684
 C         2.167039        -0.916678        -0.974360
 O         2.161017        -0.582229        -2.294292
 H        -0.518493         0.942585         0.631097
 H        -0.626285        -0.265415        -0.588482
 H        -0.500507        -0.818306         1.191777
 H         1.704080         1.913937        -0.711187
 H         1.811434         2.046300         0.955534
 H         4.281691        -1.022829        -0.177847
 H         2.339440        -1.208571         2.063955
 H         2.444170        -3.089664        -0.387498
 H         0.856479        -2.495358        -0.048711
 H         1.488764        -1.096272        -2.888277
