19
Iteration:   158
 C        -0.169778         0.106119         0.379076
 C         1.347126        -0.041805         0.108297
 C         2.230370         1.283530         0.180128
 O         3.558830         0.835938        -0.000111
 C         3.243469        -0.551915         0.014683
 C         2.104001        -1.048242         0.996078
 C         1.866888        -2.203092        -0.074435
 C         2.070655        -0.905693        -0.863432
 O         1.997647        -0.579466        -2.224706
 H        -0.375198         0.053117         1.455667
 H        -0.664898         1.037693        -0.032525
 H        -0.681368        -0.746766        -0.037741
 H         1.919647         1.840189        -0.658654
 H         2.170241         1.945533         1.021806
 H         4.218065        -1.192535         0.102276
 H         2.126057        -1.186804         2.156082
 H         2.679520        -2.954441        -0.236615
 H         0.774126        -2.444107        -0.112811
 H         2.672642        -0.974323        -2.871317
