19
Iteration:  4800charge 0 multiplicity 1
 C        -0.154350        -0.273444         0.431446
 C         1.306795        -0.000206         0.107559
 C         1.947371         1.373878         0.028950
 O         3.311395         1.084644        -0.004296
 C         3.331398        -0.453797         0.008131
 C         2.260119        -0.908121         0.979317
 C         1.963379        -2.115503         0.151073
 C         2.134189        -0.894813        -0.899595
 O         2.164532        -0.877304        -2.286797
 H        -0.582407        -1.228706        -0.068559
 H        -0.162417        -0.433073         1.548678
 H        -0.928135         0.508368         0.217617
 H         1.540447         1.979332        -0.919029
 H         1.561735         1.950283         0.924278
 H         4.433846        -0.665404        -0.239984
 H         2.347968        -0.889724         2.013040
 H         2.675087        -2.839614         0.069080
 H         1.126187        -2.809290         0.173233
 H         2.959172        -0.476335        -2.672424
