19
Iteration:  2303charge 0 multiplicity 1
 C        -0.173539        -0.212375         0.278028
 C         1.308576        -0.052225         0.275047
 C         1.949681         1.461060         0.331253
 O         3.424007         0.998154         0.261331
 C         3.329116        -0.404991        -0.097918
 C         2.360717        -1.012699         0.939506
 C         2.017282        -2.129181        -0.120382
 C         2.129020        -0.892110        -0.988259
 O         1.974107        -0.861740        -2.336837
 H        -0.729291        -0.163847         1.161549
 H        -0.591338         0.661741        -0.373862
 H        -0.359955        -1.222037        -0.279111
 H         1.521586         2.016921        -0.553431
 H         1.800805         2.075036         1.241628
 H         4.287122        -0.894481        -0.117568
 H         2.472224        -1.006449         1.988157
 H         2.813432        -2.886781        -0.387194
 H         1.075825        -2.625999        -0.114771
 H         2.343865        -0.083782        -2.682206
