19
Iteration:   174
 C        -0.147720         0.034553         0.256284
 C         1.366019         0.041766         0.326416
 C         2.149225         1.328566         0.118349
 O         3.605267         0.850948         0.036851
 C         3.412284        -0.594972         0.098895
 C         2.187101        -1.134096         0.992245
 C         1.748172        -2.151022        -0.095236
 C         2.080372        -0.850095        -0.881232
 O         1.875803        -0.582852        -2.260945
 H        -0.620427         0.177892         1.241563
 H        -0.435119         0.862534        -0.360861
 H        -0.564823        -0.886602        -0.257412
 H         1.898017         1.835936        -0.934951
 H         2.095635         1.964727         1.055252
 H         4.312541        -1.081031        -0.055513
 H         2.202886        -1.291538         2.020724
 H         2.447201        -3.001770        -0.143148
 H         0.803552        -2.671668        -0.021979
 H         2.672283        -1.141977        -2.666566
