19
Iteration:  3159charge 0 multiplicity 1
 C        -0.169781        -0.128029         0.152160
 C         1.305515        -0.172468         0.216354
 C         1.908911         1.275953         0.260205
 O         3.388010         1.042102         0.154715
 C         3.302819        -0.334218        -0.092736
 C         2.356923        -1.065683         0.964054
 C         2.167617        -2.224740        -0.041392
 C         2.110584        -0.923756        -0.879156
 O         1.941316        -0.644231        -2.241469
 H        -0.653286         0.038978         1.070573
 H        -0.564303         0.675578        -0.534801
 H        -0.576870        -1.047742        -0.167464
 H         1.494674         1.970550        -0.370393
 H         1.568308         1.731117         1.200435
 H         4.307324        -0.687560        -0.319386
 H         2.468417        -1.404766         2.100511
 H         3.000166        -2.851238        -0.061936
 H         1.286774        -2.800959         0.112020
 H         2.659335         0.033480        -2.517552
