19
Iteration:   793charge 0 multiplicity 1
 C        -0.190861         0.054675         0.527494
 C         1.267320        -0.024054         0.245528
 C         2.009783         1.342664         0.315076
 O         3.444484         0.950901         0.095404
 C         3.285245        -0.497659        -0.094925
 C         2.274317        -1.089412         0.871531
 C         1.797914        -2.142784        -0.151963
 C         2.110661        -0.874490        -0.964849
 O         2.207526        -0.841167        -2.358747
 H        -0.417465        -0.250153         1.627760
 H        -0.474686         1.034068         0.478603
 H        -0.967948        -0.449884        -0.233515
 H         1.793630         2.063894        -0.521175
 H         1.826408         1.932730         1.214438
 H         4.353825        -0.818537        -0.425778
 H         2.512726        -1.406342         1.986708
 H         2.530934        -2.900571        -0.254945
 H         0.716037        -2.368130        -0.085386
 H         3.097556        -0.679834        -2.478349
