19
Iteration:   816
 C        -0.087666         0.105247         0.550993
 C         1.283436         0.016029         0.098838
 C         2.048434         1.284610         0.361975
 O         3.402168         0.930145         0.087114
 C         3.276713        -0.517363         0.031279
 C         2.122747        -1.003710         0.865771
 C         1.910153        -2.144738        -0.105100
 C         2.145996        -0.921330        -1.001838
 O         2.122533        -0.853075        -2.449072
 H        -0.020853        -0.351503         1.625504
 H        -0.641070         0.982507         0.552645
 H        -0.695477        -0.712015        -0.041225
 H         1.744461         2.245185        -0.120779
 H         1.964555         1.507630         1.428060
 H         4.339947        -0.906059        -0.089393
 H         1.948122        -0.874407         2.005222
 H         2.701687        -2.825433        -0.316896
 H         0.855259        -2.490617        -0.139558
 H         3.062233        -0.493005        -2.673649
