19
Iteration:   746
 C        -0.096343        -0.061987         0.263011
 C         1.412385         0.003371         0.057077
 C         2.125984         1.308908         0.172846
 O         3.515560         0.878301         0.110024
 C         3.335742        -0.535570         0.007575
 C         2.173196        -1.069246         0.984768
 C         1.921183        -2.211624        -0.035269
 C         2.095070        -0.864010        -0.896123
 O         1.876205        -0.621193        -2.218699
 H        -0.285701        -0.263730         1.258916
 H        -0.711272         0.790648        -0.086982
 H        -0.525970        -0.880722        -0.280847
 H         1.853270         2.116008        -0.544965
 H         1.937291         1.791571         1.220527
 H         4.279221        -1.059795        -0.048149
 H         2.034704        -1.148629         2.033673
 H         2.765168        -2.920701        -0.092931
 H         0.942694        -2.596918         0.027530
 H         1.893188         0.362668        -2.321707
