19
Iteration:  2934charge 0 multiplicity 1
 C        -0.184994        -0.065840         0.419156
 C         1.275700        -0.143671         0.104407
 C         1.908250         1.210354         0.267039
 O         3.294558         1.037183         0.221855
 C         3.376310        -0.389515        -0.003367
 C         2.320503        -1.090543         0.873188
 C         2.111961        -2.152783        -0.110006
 C         2.108397        -0.821793        -0.994954
 O         2.131172        -0.770522        -2.337777
 H        -0.426050         0.200865         1.480091
 H        -0.696288         0.698773        -0.059716
 H        -0.836296        -0.987761         0.220663
 H         1.563551         1.936777        -0.540376
 H         1.677434         1.760225         1.298815
 H         4.413726        -0.727713        -0.064382
 H         2.458220        -0.945981         1.889958
 H         2.866882        -3.030510        -0.264585
 H         1.190587        -2.714259        -0.110456
 H         2.040487         0.129971        -2.588700
