19
Iteration:  3065charge 0 multiplicity 1
 C        -0.160458        -0.253554         0.390183
 C         1.322533        -0.090959         0.195241
 C         1.898258         1.320954         0.252235
 O         3.364266         1.055310         0.166470
 C         3.325767        -0.401758         0.007184
 C         2.255911        -0.999828         0.943896
 C         1.981341        -2.207967        -0.126283
 C         2.181823        -0.826096        -0.975730
 O         2.125725        -0.738223        -2.365179
 H        -0.437527         0.382311         1.280601
 H        -0.756427        -0.026081        -0.439806
 H        -0.377132        -1.328329         0.751184
 H         1.600598         2.023930        -0.485147
 H         1.777342         2.030120         1.086693
 H         4.287180        -0.809868        -0.139423
 H         2.152812        -1.065675         1.970458
 H         2.830643        -3.050398        -0.184748
 H         1.023695        -2.690788        -0.172341
 H         2.453111         0.119291        -2.656221
