19
Iteration:  4328charge 0 multiplicity 1
 C        -0.210182        -0.319960         0.370555
 C         1.354764        -0.117170         0.167699
 C         1.927354         1.313977         0.287224
 O         3.352032         1.079324         0.087457
 C         3.313492        -0.388969        -0.031506
 C         2.328798        -1.056463         0.960252
 C         2.020799        -2.151170        -0.137705
 C         2.173998        -0.890703        -0.939204
 O         2.045222        -0.624552        -2.289211
 H        -0.431566        -0.324639         1.351586
 H        -0.679417         0.645952         0.138528
 H        -0.562115        -1.229274        -0.105663
 H         1.601381         1.948523        -0.531826
 H         1.624851         1.790187         1.257462
 H         4.291564        -0.753436        -0.169047
 H         2.187986        -1.182545         2.140792
 H         2.854207        -2.932556        -0.367348
 H         0.986085        -2.538228         0.093953
 H         2.915899        -0.222695        -2.636699
