19
Iteration:   893
 C        -0.190462        -0.017845         0.042865
 C         1.357161        -0.133483         0.152178
 C         2.111407         1.237309         0.222756
 O         3.590912         0.926257         0.150046
 C         3.408560        -0.499050         0.070145
 C         2.329027        -1.083882         0.972206
 C         1.912233        -2.179580        -0.064815
 C         2.137729        -0.924615        -0.852923
 O         1.729706        -0.558124        -2.208673
 H        -0.639967         0.975271         0.442944
 H        -0.522061        -0.190150        -0.883807
 H        -0.477192        -0.968119         0.567646
 H         1.853192         2.055357        -0.528279
 H         2.018298         1.736406         1.238455
 H         4.418516        -0.876569        -0.012502
 H         2.243909        -1.141057         2.077966
 H         2.653445        -2.956603        -0.106268
 H         0.885621        -2.598641        -0.146088
 H         1.705168         0.429670        -2.142719
