19
Iteration:  2202
 C        -0.103415        -0.308526         0.301956
 C         1.305788        -0.034849         0.177385
 C         2.013554         1.374521         0.250496
 O         3.369227         0.957363        -0.000590
 C         3.312907        -0.456531         0.014602
 C         2.238198        -1.105314         0.963202
 C         1.989746        -2.153739        -0.102316
 C         2.159742        -0.870766        -0.870773
 O         2.004441        -0.535830        -2.218471
 H        -0.484934         0.362466         1.109510
 H        -0.606307        -0.011156        -0.664876
 H        -0.372372        -1.302513         0.645252
 H         1.751026         1.967297        -0.661964
 H         1.706426         1.865491         1.159432
 H         4.272460        -0.930533        -0.106653
 H         2.222429        -1.180115         2.130780
 H         2.790661        -2.920055        -0.188750
 H         0.952218        -2.652233        -0.053540
 H         2.842334        -0.128166        -2.604776
