19
Iteration:   357
 C        -0.114970         0.256190         0.217598
 C         1.406646        -0.023183         0.124927
 C         2.056479         1.348583         0.263247
 O         3.544897         0.871225         0.251543
 C         3.337947        -0.613787        -0.122703
 C         2.310637        -1.079169         0.922748
 C         1.774844        -2.223583         0.020118
 C         2.076755        -0.927658        -0.960778
 O         1.985612        -0.718719        -2.250888
 H        -0.501872         0.383390         1.258507
 H        -0.356099         1.111937        -0.339347
 H        -0.754089        -0.567913        -0.353313
 H         1.882019         1.995625        -0.532223
 H         1.895096         1.846483         1.189416
 H         4.273828        -1.020231        -0.264959
 H         2.521851        -1.072248         1.998567
 H         2.453758        -3.103839        -0.263798
 H         0.804919        -2.626584         0.358810
 H         1.177397        -1.092392        -2.564737
