19
Iteration:  2940
 C        -0.199163        -0.122891         0.394712
 C         1.306951        -0.050075         0.118535
 C         1.921092         1.274824         0.255053
 O         3.306316         1.046569         0.257391
 C         3.316737        -0.414156        -0.018599
 C         2.345684        -1.045613         0.851990
 C         2.100410        -2.172336        -0.164122
 C         2.111332        -0.867367        -0.969923
 O         2.110558        -0.805221        -2.303152
 H        -0.312918         0.050024         1.461822
 H        -0.792405         0.692880        -0.219438
 H        -0.701512        -1.022216         0.159552
 H         1.670584         2.038995        -0.457004
 H         1.701115         1.549949         1.317833
 H         4.358421        -0.783734        -0.224392
 H         2.504158        -1.123978         2.035201
 H         2.954888        -2.782633        -0.268483
 H         1.092199        -2.703422        -0.056195
 H         2.074178         0.136902        -2.554849
