19
Iteration:  4210
 C        -0.143825        -0.327599         0.088009
 C         1.339154        -0.095785         0.242366
 C         2.002310         1.338142         0.413229
 O         3.342664         0.993063         0.180337
 C         3.344482        -0.370162         0.007026
 C         2.391874        -1.052621         0.919299
 C         2.126023        -2.144403        -0.176152
 C         2.161004        -0.788848        -0.863537
 O         1.803689        -0.699121        -2.260297
 H        -0.645307         0.584853        -0.479369
 H        -0.507050        -0.944954        -0.743499
 H        -0.716826        -0.632724         0.957836
 H         1.831738         2.331816        -0.185464
 H         1.844358         1.648151         1.523660
 H         4.321298        -0.697976        -0.175168
 H         2.575550        -1.187300         2.066371
 H         2.984759        -2.671317        -0.364966
 H         1.188133        -2.704874        -0.050145
 H         2.177049         0.012521        -2.749816
