19
Iteration:  1744
 C        -0.144584        -0.210149         0.199156
 C         1.365585        -0.051214         0.227771
 C         2.052553         1.370937         0.206708
 O         3.412553         0.971988         0.238385
 C         3.381064        -0.511474        -0.001693
 C         2.293573        -1.050531         0.954748
 C         1.977219        -2.149717        -0.093998
 C         2.097513        -0.853761        -0.903287
 O         1.875472        -0.669194        -2.306503
 H        -0.706926         0.488913         0.773176
 H        -0.505570        -0.090165        -0.863027
 H        -0.348902        -1.197363         0.721367
 H         1.865987         1.981261        -0.756155
 H         1.870172         1.950778         1.125358
 H         4.370821        -0.923088        -0.069123
 H         2.492692        -1.035835         2.039837
 H         2.797115        -2.934578        -0.231883
 H         0.917005        -2.540811        -0.190269
 H         2.413069         0.072943        -2.451243
