19
Iteration:  3270charge 0 multiplicity 1
 C        -0.171292        -0.095143         0.393317
 C         1.325763        -0.119412         0.205134
 C         1.868391         1.314890         0.349212
 O         3.307535         1.077955         0.033330
 C         3.307552        -0.394980        -0.005173
 C         2.260793        -1.140786         0.923836
 C         2.109037        -2.193060        -0.203321
 C         2.215990        -0.836943        -0.920909
 O         2.121972        -0.774535        -2.283301
 H        -0.575946         0.443641         1.228064
 H        -0.536679         0.222516        -0.535583
 H        -0.626622        -1.096570         0.542375
 H         1.362615         2.082886        -0.243544
 H         1.723990         1.732633         1.519377
 H         4.306558        -0.735986        -0.084768
 H         2.245960        -1.340070         2.028246
 H         2.925837        -2.918006        -0.423279
 H         1.223020        -2.669485        -0.432697
 H         2.142286         0.154046        -2.433004
