19
Iteration:  3486charge 0 multiplicity 1
 C        -0.162222        -0.088207         0.202116
 C         1.319438        -0.141224         0.139483
 C         1.866843         1.266349         0.338178
 O         3.347282         1.062658         0.145532
 C         3.363827        -0.390081         0.078055
 C         2.420688        -1.106674         0.993310
 C         2.183853        -2.157910        -0.183841
 C         2.136624        -0.885791        -0.907288
 O         1.916439        -0.792958        -2.268172
 H        -0.584212         0.024633         1.131966
 H        -0.293692         0.977103        -0.188166
 H        -0.552722        -0.709348        -0.489317
 H         1.509117         1.962643        -0.551682
 H         1.555860         1.958607         1.325405
 H         4.298167        -0.872327         0.010303
 H         2.468339        -1.148096         2.116098
 H         3.114356        -2.684663        -0.395499
 H         1.333857        -2.735168        -0.404796
 H         1.437574         0.091535        -2.432206
