19
Iteration:  2676
 C        -0.206667        -0.151126         0.279090
 C         1.335817        -0.072829         0.185246
 C         1.903832         1.322405         0.247707
 O         3.329834         0.971147         0.179939
 C         3.336632        -0.437427         0.059397
 C         2.289469        -1.099696         0.940378
 C         2.191699        -2.159049        -0.147669
 C         2.092451        -0.824146        -0.885265
 O         2.087028        -0.643497        -2.320484
 H        -0.359792         0.250343         1.227559
 H        -0.671643         0.590065        -0.419186
 H        -0.528250        -1.224035         0.313101
 H         1.537690         1.764504        -0.665071
 H         1.662981         2.040114         0.943755
 H         4.342614        -0.899097        -0.109869
 H         2.577689        -1.099012         1.976184
 H         3.075209        -2.779866        -0.423244
 H         1.201797        -2.707654        -0.171158
 H         1.231713        -0.963483        -2.490641
