19
Iteration:  4134charge 0 multiplicity 1
 C        -0.210288        -0.350005         0.564010
 C         1.293364        -0.080974         0.206512
 C         1.931290         1.289111         0.323612
 O         3.353556         1.022373         0.148608
 C         3.256853        -0.391794        -0.044019
 C         2.222259        -1.070658         0.846948
 C         2.089353        -2.148093        -0.227558
 C         2.182405        -0.796841        -0.961662
 O         2.195753        -0.646146        -2.367356
 H        -0.830935        -0.460913        -0.328834
 H        -0.368214        -1.190960         1.228482
 H        -0.739987         0.582528         0.739562
 H         1.515252         1.969613        -0.504400
 H         1.837278         1.855711         1.343907
 H         4.236451        -0.747700        -0.083668
 H         2.128592        -1.110669         2.013703
 H         2.682142        -3.002038        -0.418094
 H         0.975892        -2.409335        -0.279524
 H         2.652198         0.232508        -2.633438
