19
Iteration:  3784charge 0 multiplicity 1
 C        -0.170753        -0.323194         0.461329
 C         1.266549        -0.069544         0.259504
 C         1.921439         1.242131         0.456287
 O         3.338350         1.000277         0.201574
 C         3.319227        -0.411413        -0.052311
 C         2.265750        -1.068488         0.901036
 C         1.985241        -2.134075        -0.346546
 C         2.181175        -0.786621        -1.004325
 O         2.146227        -0.607754        -2.405274
 H        -0.392821        -0.109527         1.514425
 H        -0.819467         0.493444         0.003034
 H        -0.347899        -1.393570         0.196173
 H         1.659683         2.040328        -0.151347
 H         1.803017         1.659235         1.440327
 H         4.351539        -0.747083        -0.105607
 H         2.464962        -1.180975         1.958082
 H         2.779330        -2.877675        -0.685419
 H         0.968196        -2.577071        -0.306593
 H         2.609195         0.176198        -2.632573
