19
Iteration:  1581
 C        -0.116285        -0.057811         0.141947
 C         1.381338        -0.078594         0.166167
 C         1.995371         1.302718         0.318862
 O         3.442090         0.966576         0.113986
 C         3.343668        -0.462350        -0.046792
 C         2.237520        -1.111901         0.984440
 C         2.081833        -2.214094         0.028632
 C         2.128294        -0.857553        -0.932968
 O         1.813478        -0.587043        -2.246116
 H        -0.597618         0.151240         1.124162
 H        -0.393663         0.765312        -0.581355
 H        -0.475243        -1.108486        -0.136884
 H         1.704321         1.921495        -0.561663
 H         1.798970         1.800343         1.311747
 H         4.325020        -0.921005        -0.075744
 H         2.320026        -1.186498         2.042488
 H         2.819417        -2.979103        -0.288339
 H         1.102204        -2.733553         0.094153
 H         2.733871        -0.873674        -2.659103
