19
Iteration:  3317charge 0 multiplicity 1
 C        -0.196938        -0.340561         0.153592
 C         1.304838        -0.045722         0.219711
 C         1.971840         1.346503         0.294663
 O         3.427460         1.060825         0.221713
 C         3.389211        -0.420016        -0.057705
 C         2.336331        -0.985566         0.949329
 C         1.994808        -2.195949        -0.135361
 C         2.172653        -0.799327        -0.885610
 O         1.891815        -0.726114        -2.256877
 H        -0.418220        -0.604072         1.241767
 H        -0.771561         0.434192        -0.322867
 H        -0.439574        -1.367578        -0.368043
 H         1.724130         2.076692        -0.562848
 H         1.742623         2.024639         1.308526
 H         4.463677        -0.676268        -0.300270
 H         2.604652        -1.046601         1.958576
 H         2.792596        -2.932385        -0.134120
 H         1.071499        -2.774311        -0.002882
 H         2.497556        -0.050829        -2.637740
