19
Iteration:  2538
 C        -0.202186        -0.308943         0.355869
 C         1.367131        -0.072387         0.130140
 C         2.031937         1.357401         0.226024
 O         3.396228         1.037744         0.196719
 C         3.307499        -0.366843        -0.017602
 C         2.251812        -0.984820         0.908614
 C         1.960947        -2.182952        -0.161107
 C         2.175469        -0.871897        -0.906402
 O         2.024551        -0.668814        -2.287216
 H        -0.449013        -0.180277         1.448976
 H        -0.952044         0.257879        -0.113654
 H        -0.385694        -1.297277         0.157654
 H         1.623540         1.890146        -0.586012
 H         1.716679         1.939584         1.110437
 H         4.251594        -0.809373         0.059377
 H         2.329446        -1.035731         1.992345
 H         2.686140        -2.911016        -0.085181
 H         0.984593        -2.536880         0.026109
 H         2.805831        -0.898281        -2.914885
