19
Iteration:    81
 C        -0.150925         0.054305         0.296765
 C         1.353735         0.035633         0.156607
 C         2.224459         1.352126         0.327070
 O         3.554743         0.827241         0.147847
 C         3.306319        -0.557323         0.045809
 C         2.216125        -1.033999         0.966473
 C         1.830157        -2.102620        -0.137437
 C         2.039888        -0.836079        -0.917829
 O         1.922480        -0.837885        -2.359084
 H        -0.375005         0.669441         1.163786
 H        -0.731012         0.423023        -0.592435
 H        -0.532119        -0.889757         0.478260
 H         2.152548         2.119746        -0.494023
 H         2.097238         1.751051         1.325394
 H         4.285503        -1.068186        -0.217141
 H         2.217798        -1.194873         2.058381
 H         2.514891        -2.948612        -0.297248
 H         0.811437        -2.488182        -0.109057
 H         2.141940        -0.010821        -2.710292
