19
Iteration:  3032
 C        -0.245177        -0.086942         0.230618
 C         1.266541        -0.156488         0.283387
 C         1.878504         1.260660         0.224782
 O         3.319973         0.974082         0.056472
 C         3.335674        -0.420586         0.054785
 C         2.405086        -1.101577         1.005875
 C         2.180551        -2.203820        -0.146874
 C         2.187556        -0.825147        -0.868257
 O         1.993951        -0.622664        -2.287250
 H        -0.535438         0.621501         1.044120
 H        -0.611193         0.290442        -0.636158
 H        -0.969901        -0.945693         0.435488
 H         1.474176         1.629621        -0.662303
 H         1.803914         1.750103         1.253859
 H         4.286637        -0.830866        -0.141428
 H         2.361930        -1.086259         2.026059
 H         3.194327        -2.810518        -0.361929
 H         1.272706        -2.746665        -0.132765
 H         2.646301         0.057906        -2.467516
