19
Iteration:   580
 C        -0.145588         0.087441         0.252929
 C         1.323292         0.016176         0.080999
 C         2.148478         1.318670         0.244405
 O         3.534373         0.813197         0.132747
 C         3.326582        -0.574759        -0.014267
 C         2.202612        -1.024455         0.967423
 C         1.990353        -2.169677        -0.069152
 C         2.047627        -0.867802        -0.856317
 O         1.873033        -0.730090        -2.235262
 H        -0.469379         0.278931         1.267241
 H        -0.514273         0.966349        -0.406247
 H        -0.640496        -0.771875        -0.024085
 H         1.766086         1.969123        -0.522764
 H         1.914380         1.719818         1.277611
 H         4.288229        -1.162118        -0.391508
 H         2.294415        -0.963780         2.091196
 H         2.779630        -2.873929        -0.411924
 H         1.024891        -2.795446         0.074906
 H         2.370966         0.014384        -2.508394
