19
Iteration:  3203
 C        -0.174836        -0.380524         0.323170
 C         1.271943        -0.054698         0.128814
 C         1.940656         1.331372         0.264216
 O         3.454465         1.086384         0.139312
 C         3.413749        -0.387431         0.028277
 C         2.239966        -1.086364         0.938668
 C         2.008826        -2.144104        -0.123264
 C         2.169365        -0.808123        -0.892267
 O         1.982121        -0.670986        -2.284772
 H        -0.634621         0.100584         1.112837
 H        -0.732477        -0.114360        -0.585931
 H        -0.369914        -1.356696         0.505603
 H         1.672063         2.017779        -0.467794
 H         1.693729         1.901986         1.234531
 H         4.297950        -0.948078        -0.185850
 H         2.247713        -1.074497         2.110074
 H         2.682117        -2.944838        -0.334924
 H         1.022105        -2.498517        -0.239855
 H         2.754840        -0.217365        -2.754925
