19
Iteration:  2135charge 0 multiplicity 1
 C        -0.193416        -0.101371         0.213474
 C         1.324603        -0.110065         0.240691
 C         1.992531         1.345280         0.383615
 O         3.420361         1.094325         0.226610
 C         3.365857        -0.344157         0.070772
 C         2.348209        -1.118993         0.929722
 C         2.110870        -2.181704        -0.227448
 C         2.110629        -0.832051        -0.942691
 O         1.889351        -0.762133        -2.328543
 H        -0.827494         0.554426         0.934752
 H        -0.414033         0.259328        -0.780446
 H        -0.630157        -1.043455         0.397467
 H         1.714315         1.764010        -0.619850
 H         1.816036         1.956126         1.237820
 H         4.410255        -0.750066        -0.188676
 H         2.457144        -1.535705         2.022671
 H         2.965407        -2.859735        -0.511371
 H         1.077973        -2.746796        -0.166323
 H         1.818521        -1.637418        -2.629402
