19
Iteration:   810
 C        -0.097990         0.078857         0.565043
 C         1.325987         0.011266         0.120669
 C         2.060238         1.316975         0.340639
 O         3.377753         0.958826         0.103267
 C         3.274908        -0.486852         0.001571
 C         2.158585        -1.041384         0.886850
 C         1.867404        -2.171958        -0.109654
 C         2.078739        -0.905480        -1.007101
 O         2.173135        -0.854273        -2.454505
 H        -0.128445        -0.410302         1.506197
 H        -0.513191         1.237245         0.528267
 H        -0.633368        -0.620720         0.046994
 H         1.666557         2.160385        -0.216468
 H         2.043868         1.521182         1.464269
 H         4.221215        -0.943246        -0.008485
 H         2.044399        -0.878011         1.896857
 H         2.616168        -2.996736        -0.407161
 H         0.870418        -2.602098        -0.074616
 H         3.036189        -0.615279        -2.629599
