19
Iteration:  4334
 C        -0.170787        -0.340169         0.328192
 C         1.337323        -0.054999         0.180349
 C         1.889654         1.297549         0.291586
 O         3.382214         1.086600         0.091227
 C         3.348990        -0.373585         0.000584
 C         2.340296        -1.063176         0.952916
 C         2.016095        -2.187877        -0.108611
 C         2.155041        -0.860315        -0.926353
 O         2.025406        -0.637319        -2.296422
 H        -0.581830        -0.436449         1.485861
 H        -0.815016         0.560974         0.108515
 H        -0.541105        -1.147585        -0.353518
 H         1.661512         1.995302        -0.544526
 H         1.736367         1.713451         1.327595
 H         4.384961        -0.797324        -0.223944
 H         2.263239        -1.150397         1.966590
 H         2.664454        -3.014207        -0.363478
 H         1.026714        -2.508567         0.102476
 H         2.734594        -0.259064        -2.771922
