19
Iteration:   132charge 0 multiplicity 1
 C        -0.149288         0.211935         0.509243
 C         1.328345        -0.000356         0.122134
 C         2.065003         1.289089         0.246440
 O         3.482206         0.826620         0.094093
 C         3.315434        -0.607348        -0.051295
 C         2.211725        -1.048966         0.888545
 C         1.780164        -2.201635         0.021937
 C         2.049660        -0.873534        -0.960196
 O         2.127743        -0.675393        -2.397730
 H        -0.358839         0.293594         1.601764
 H        -0.579439         1.103476        -0.035496
 H        -0.736186        -0.635226         0.089499
 H         1.832606         2.006180        -0.574314
 H         1.914110         1.672769         1.271467
 H         4.253721        -1.137595         0.075321
 H         2.405730        -1.136017         1.887015
 H         2.554718        -2.956887        -0.134608
 H         0.823222        -2.639426         0.146185
 H         2.972963        -1.075165        -2.723437
