19
Iteration:  1533
 C        -0.183344        -0.093345         0.399341
 C         1.316445         0.002014         0.252418
 C         2.066266         1.304809         0.333970
 O         3.395581         0.998858         0.115892
 C         3.296980        -0.438209        -0.024592
 C         2.232268        -1.068178         0.928477
 C         1.893074        -2.166728        -0.165218
 C         2.091074        -0.791010        -0.973524
 O         2.192757        -0.852111        -2.361346
 H        -0.511265         0.774462         0.936336
 H        -0.733850        -0.004915        -0.536317
 H        -0.356155        -0.964626         0.991127
 H         1.658211         2.103993        -0.281882
 H         1.969366         1.810950         1.325528
 H         4.289660        -0.877200        -0.342278
 H         2.194260        -1.282628         2.027067
 H         2.760729        -2.902143        -0.132357
 H         0.982467        -2.823528        -0.288501
 H         1.840986        -0.031226        -2.709816
