19
Iteration:   214
 C        -0.133789         0.139809         0.100395
 C         1.388799        -0.004502         0.135452
 C         2.172755         1.329635         0.307132
 O         3.608408         0.838554         0.257367
 C         3.436016        -0.564274        -0.013633
 C         2.281306        -1.017983         0.936192
 C         1.861404        -2.213874         0.031539
 C         2.050663        -0.921173        -0.944172
 O         1.690895        -0.639053        -2.299084
 H        -0.550092         0.805234         0.856250
 H        -0.402226         0.462988        -0.928383
 H        -0.691595        -0.865981         0.159706
 H         1.942619         2.024084        -0.460424
 H         1.978328         1.755437         1.266099
 H         4.402848        -1.085339        -0.294704
 H         2.144753        -1.135155         2.114185
 H         2.638329        -3.078784         0.069654
 H         0.853484        -2.778750         0.155271
 H         2.262112        -1.117538        -2.823755
