19
Iteration:  3884
 C        -0.120265        -0.445576         0.214837
 C         1.381685        -0.096153         0.200736
 C         1.982945         1.245482         0.498858
 O         3.420696         0.954689         0.273377
 C         3.381268        -0.419695        -0.035414
 C         2.286130        -1.107594         0.896108
 C         2.012588        -2.081115        -0.242648
 C         2.107328        -0.708248        -0.953280
 O         1.888098        -0.470416        -2.339870
 H        -0.683990         0.391955         0.600089
 H        -0.432008        -0.801846        -0.804934
 H        -0.286134        -1.388003         0.787570
 H         1.733381         1.954317        -0.441068
 H         1.888938         1.730248         1.453262
 H         4.310148        -0.838983         0.099072
 H         2.373371        -1.267841         2.018801
 H         2.725078        -2.768130        -0.623302
 H         1.035713        -2.714681        -0.266768
 H         2.066960         0.465042        -2.628856
