19
Iteration:  3390charge 0 multiplicity 1
 C        -0.207741        -0.200784         0.361266
 C         1.294136        -0.059260         0.212474
 C         1.904662         1.263432         0.330994
 O         3.324167         1.024726         0.064876
 C         3.306612        -0.417054        -0.023109
 C         2.297959        -1.062740         0.990669
 C         2.077054        -2.143307        -0.047846
 C         2.112796        -0.838104        -0.922453
 O         2.095762        -0.683280        -2.411418
 H        -0.367221        -0.737198         1.303781
 H        -0.638273         0.829549         0.455627
 H        -0.588483        -0.748948        -0.559134
 H         1.511975         1.820621        -0.454900
 H         1.794103         1.800043         1.167465
 H         4.393022        -0.756074        -0.117604
 H         2.483165        -1.087904         2.086381
 H         3.018260        -2.744071        -0.369449
 H         1.194424        -2.688266        -0.163071
 H         3.100160        -0.506503        -2.556388
