19
Iteration:  4538charge 0 multiplicity 1
 C        -0.150768        -0.126934         0.122184
 C         1.345447        -0.107030         0.136782
 C         1.876358         1.303010         0.211665
 O         3.344676         1.050036         0.093711
 C         3.349580        -0.343298         0.039195
 C         2.386714        -0.999407         0.989691
 C         2.239093        -2.236838        -0.044102
 C         2.169028        -0.890452        -0.861166
 O         1.794094        -0.722960        -2.160826
 H        -0.623144         0.613030        -0.333854
 H        -0.324143        -1.008728        -0.472998
 H        -0.611506        -0.085923         1.077402
 H         1.566908         1.866967        -0.656092
 H         1.776482         1.910731         1.153473
 H         4.418015        -0.811823        -0.011938
 H         2.356236        -1.005138         2.085797
 H         3.183546        -2.838269        -0.092689
 H         1.187078        -2.675857         0.046042
 H         2.311020        -1.233279        -2.770748
