19
Iteration:  1286
 C        -0.170970        -0.038989         0.236663
 C         1.317709        -0.054677         0.243352
 C         2.128148         1.391112         0.259301
 O         3.469901         0.908655         0.179038
 C         3.346673        -0.533370        -0.081328
 C         2.288110        -1.087274         0.963595
 C         1.896683        -2.122525        -0.111094
 C         2.139603        -0.828838        -0.924532
 O         1.951623        -0.679926        -2.260568
 H        -0.541887         0.477790         1.241247
 H        -0.480197         0.503614        -0.622910
 H        -0.674614        -1.115972         0.076720
 H         1.772458         2.103986        -0.557611
 H         2.012844         1.783647         1.284686
 H         4.464757        -0.878644        -0.156144
 H         2.471619        -1.126921         2.068880
 H         2.467971        -2.979201        -0.408869
 H         0.865640        -2.418509         0.077208
 H         1.604947        -1.563029        -2.651206
