19
Iteration:    17
 C        -0.117107         0.186175         0.134419
 C         1.381538        -0.021995         0.379993
 C         2.166385         1.274784         0.244279
 O         3.545099         0.855765         0.041883
 C         3.333320        -0.548996        -0.066862
 C         2.208716        -1.160842         0.974063
 C         1.809305        -2.188972        -0.112078
 C         2.095961        -0.846090        -0.820573
 O         1.913336        -0.585549        -2.162994
 H        -0.644307         0.783497         0.888773
 H        -0.288027         0.588368        -0.882924
 H        -0.604859        -0.789519         0.240176
 H         1.774041         1.534075        -0.847755
 H         2.153233         2.080890         1.028271
 H         4.271486        -1.098992        -0.329811
 H         2.438527        -1.500772         2.013321
 H         2.438659        -3.119412        -0.175957
 H         0.762693        -2.561045        -0.124957
 H         1.884562        -1.414997        -2.583881
