19
Iteration:  2030
 C        -0.129450        -0.100809         0.462805
 C         1.279626        -0.095655         0.145453
 C         1.909767         1.295843         0.149484
 O         3.302987         0.989168         0.180303
 C         3.324769        -0.449148        -0.030461
 C         2.257111        -1.072044         0.916675
 C         2.082645        -2.261206        -0.072438
 C         2.128178        -0.907293        -0.993005
 O         2.217713        -0.557740        -2.335741
 H        -0.110932         0.089388         1.497969
 H        -0.964057         0.589610         0.064957
 H        -0.617381        -1.178693         0.339449
 H         1.710919         1.962630        -0.774701
 H         1.530059         1.846990         1.078572
 H         4.274167        -0.992267        -0.090601
 H         2.271014        -1.036037         2.067530
 H         2.891625        -2.941729        -0.058121
 H         1.160245        -2.811963         0.037893
 H         1.355512        -0.196178        -2.549087
