19
Iteration:   255
 C        -0.160769         0.239760         0.268907
 C         1.385478         0.025898         0.170707
 C         2.143325         1.285599         0.379698
 O         3.532213         0.875161         0.099548
 C         3.366103        -0.535830        -0.077679
 C         2.184960        -1.128588         0.941617
 C         1.863700        -2.169912        -0.140244
 C         2.032798        -0.885727        -0.856238
 O         1.954380        -0.783657        -2.235860
 H        -0.445270         1.167844         0.794280
 H        -0.582697         0.383902        -0.817968
 H        -0.672439        -0.574658         0.746954
 H         1.946560         2.086486        -0.322420
 H         2.083287         1.806557         1.384791
 H         4.411450        -1.079739        -0.360633
 H         1.909663        -1.147064         2.058560
 H         2.604532        -2.859218        -0.505330
 H         0.813803        -2.512094        -0.219041
 H         2.415195        -1.567292        -2.738879
