19
Iteration:  3278
 C        -0.153542        -0.179285         0.346895
 C         1.362451        -0.068207         0.207130
 C         1.882318         1.303857         0.371456
 O         3.290123         1.024912         0.051305
 C         3.324408        -0.416188         0.025058
 C         2.297493        -1.067481         0.960973
 C         2.077855        -2.161454        -0.195729
 C         2.195534        -0.840504        -0.953154
 O         2.092853        -0.741480        -2.314969
 H        -0.582729         0.320252         1.182442
 H        -0.750633         0.340649        -0.505789
 H        -0.498555        -1.125616         0.404212
 H         1.376152         2.081012        -0.203344
 H         1.796844         1.635070         1.405490
 H         4.298578        -0.888003        -0.006601
 H         2.306571        -1.113287         2.123907
 H         2.970747        -2.803513        -0.246552
 H         1.103951        -2.794576        -0.291959
 H         2.071192         0.109874        -2.723960
