19
Iteration:   884charge 0 multiplicity 1
 C        -0.162955        -0.048190         0.053554
 C         1.396363        -0.061371         0.192155
 C         2.099600         1.244187         0.266252
 O         3.490242         0.886091         0.163727
 C         3.434217        -0.505410        -0.017043
 C         2.311603        -1.048023         1.024506
 C         1.888623        -2.187195        -0.093017
 C         2.179693        -0.907728        -0.879756
 O         1.774956        -0.587061        -2.195424
 H        -0.513818         0.840460         0.687639
 H        -0.303966         0.047916        -1.014570
 H        -0.658190        -0.893445         0.467047
 H         1.881848         1.832329        -0.686815
 H         1.852781         1.901334         1.060614
 H         4.386679        -0.922691        -0.177923
 H         2.441439        -1.240557         2.033995
 H         2.490673        -3.111186        -0.196423
 H         0.834160        -2.319698         0.055881
 H         1.635998         0.386347        -2.200088
