19
Iteration:  1738charge 0 multiplicity 1
 C        -0.163043        -0.196133         0.243377
 C         1.362510        -0.070719         0.202132
 C         2.049791         1.312545         0.204526
 O         3.428839         1.016516         0.242777
 C         3.366336        -0.508900        -0.081175
 C         2.323583        -1.059376         0.945732
 C         1.941271        -2.122879        -0.085683
 C         2.120313        -0.862685        -0.906623
 O         1.941538        -0.687966        -2.273702
 H        -0.782492         0.585197         0.787443
 H        -0.606556        -0.110827        -0.743002
 H        -0.572882        -1.153393         0.559896
 H         1.735759         2.013479        -0.575356
 H         1.739809         1.926656         1.073866
 H         4.380405        -0.961967        -0.014125
 H         2.399651        -1.079931         2.057049
 H         2.585282        -2.950152        -0.338741
 H         0.927290        -2.489419        -0.032522
 H         2.316106         0.206074        -2.467069
