19
Iteration:  1209charge 0 multiplicity 1
 C        -0.170293         0.003293         0.201448
 C         1.320094        -0.050975         0.278110
 C         2.109960         1.339886         0.292381
 O         3.464918         0.896735         0.139741
 C         3.353284        -0.516068        -0.046908
 C         2.366657        -1.127047         0.964013
 C         1.864934        -2.144123        -0.093187
 C         2.095847        -0.878081        -0.902987
 O         1.946713        -0.720087        -2.281431
 H        -0.442339         1.096526         0.247012
 H        -0.389885        -0.335925        -0.734647
 H        -0.799688        -0.445401         1.024125
 H         1.919597         1.983335        -0.557068
 H         1.871654         1.960238         1.154462
 H         4.360591        -0.934829        -0.354248
 H         2.398644        -1.319894         2.036821
 H         2.440150        -3.038181        -0.244479
 H         0.814358        -2.429468        -0.090870
 H         2.012727         0.251443        -2.448136
