19
Iteration:  3470charge 0 multiplicity 1
 C        -0.302780        -0.045226         0.250956
 C         1.299551        -0.134502         0.171204
 C         1.956183         1.256557         0.236967
 O         3.350664         1.046550         0.161810
 C         3.387508        -0.334836         0.024327
 C         2.317980        -1.103792         0.921909
 C         2.229169        -2.198545        -0.159497
 C         2.175221        -0.847062        -0.886862
 O         1.987286        -0.770149        -2.238852
 H        -0.572185        -0.416737         1.331262
 H        -0.748625         0.945349         0.115734
 H        -0.866854        -0.762846        -0.502740
 H         1.671507         1.923351        -0.501383
 H         1.771284         1.587946         1.193148
 H         4.458399        -0.695728        -0.176360
 H         2.339133        -1.325804         1.974002
 H         3.063567        -2.902611        -0.357657
 H         1.277846        -2.822160         0.024422
 H         1.503380         0.082263        -2.498511
