19
Iteration:   426charge 0 multiplicity 1
 C        -0.137171         0.059387         0.279447
 C         1.336941         0.015443         0.149572
 C         2.156164         1.352546         0.238446
 O         3.552287         0.840360         0.122521
 C         3.280972        -0.615175        -0.025380
 C         2.251429        -1.095401         0.970712
 C         1.795666        -2.136405        -0.020558
 C         2.067323        -0.879976        -0.876074
 O         1.950576        -0.647693        -2.332031
 H        -0.296979         0.788424         1.102244
 H        -0.664898         0.380858        -0.673715
 H        -0.633985        -0.877171         0.509505
 H         1.925942         2.118911        -0.473218
 H         1.979998         1.716507         1.208877
 H         4.241242        -1.163047        -0.215390
 H         2.344219        -1.223920         2.040169
 H         2.471477        -3.004228        -0.239711
 H         0.763902        -2.507308         0.206968
 H         2.860743        -0.571690        -2.633827
