19
Iteration:  3840
 C        -0.124520        -0.150481         0.160310
 C         1.336327        -0.209496         0.275556
 C         1.914361         1.164313         0.471012
 O         3.346700         1.035159         0.273755
 C         3.419095        -0.380690        -0.031293
 C         2.348358        -1.185179         0.854827
 C         2.164701        -2.159920        -0.321122
 C         2.167976        -0.748036        -0.942587
 O         1.837340        -0.558386        -2.245706
 H        -0.387025         0.796722         0.594075
 H        -0.484979        -0.272628        -0.890329
 H        -0.866470        -0.830763         0.656689
 H         1.529455         1.856915        -0.249239
 H         1.727087         1.466022         1.488103
 H         4.356068        -0.733401        -0.290447
 H         2.430848        -1.462006         1.940151
 H         2.947746        -2.870381        -0.530274
 H         1.218216        -2.803028        -0.188865
 H         1.921683         0.408024        -2.496218
