19
Iteration:  2387charge 0 multiplicity 1
 C        -0.246594        -0.182769         0.366350
 C         1.282183        -0.133085         0.217217
 C         1.983439         1.354180         0.266424
 O         3.361190         1.041354         0.122303
 C         3.304554        -0.408580        -0.012663
 C         2.375099        -1.108102         0.905206
 C         1.986983        -2.186937        -0.163549
 C         2.135991        -0.872078        -0.928292
 O         2.097268        -0.700010        -2.272981
 H        -0.557392         0.761671         0.900100
 H        -0.659213        -0.237318        -0.605147
 H        -0.726829        -0.923331         0.946978
 H         1.733850         1.891843        -0.655456
 H         1.791546         1.939713         1.175434
 H         4.279015        -0.681701        -0.105674
 H         2.576714        -1.100289         1.987061
 H         2.790446        -2.945371        -0.153705
 H         0.985168        -2.642379        -0.140718
 H         2.645179         0.068030        -2.670648
