19
Iteration:   318
 C        -0.173443         0.051485         0.410935
 C         1.310195         0.100203         0.153329
 C         2.218003         1.406019         0.069023
 O         3.612396         0.814307         0.031776
 C         3.301991        -0.664614         0.107511
 C         2.093137        -1.105250         0.941435
 C         1.814842        -2.166882        -0.156042
 C         2.085012        -0.872802        -0.839786
 O         2.048663        -0.614831        -2.192363
 H        -0.486160         0.376306         1.411549
 H        -0.656520         0.835054        -0.261857
 H        -0.493907        -0.914029         0.261625
 H         1.922383         1.982343        -0.933332
 H         1.932417         2.121581         0.917512
 H         4.196715        -1.364802         0.284107
 H         2.184909        -1.223855         1.990879
 H         2.607563        -2.887298        -0.247270
 H         0.819145        -2.553726        -0.328185
 H         1.664542        -1.391199        -2.685051
