19
Iteration:  1333charge 0 multiplicity 1
 C        -0.270425         0.004159         0.571747
 C         1.256261         0.015708         0.033581
 C         2.080249         1.316452         0.167157
 O         3.407629         0.855674         0.003844
 C         3.312184        -0.536816        -0.007396
 C         2.219213        -1.045582         0.909834
 C         1.852417        -2.185567        -0.044100
 C         2.186261        -0.932889        -0.898876
 O         2.282251        -0.626165        -2.294298
 H        -0.062035        -0.266186         1.685773
 H        -0.772568         1.015450         0.475786
 H        -0.926535        -0.696262         0.027712
 H         1.738347         1.926874        -0.651610
 H         1.833668         1.722571         1.189060
 H         4.275063        -0.964189        -0.085405
 H         2.370256        -1.176238         1.981705
 H         2.678828        -2.965800         0.039233
 H         0.857975        -2.617691        -0.269132
 H         1.402392        -0.131998        -2.464406
