19
Iteration:   459
 C        -0.144001         0.091837         0.398784
 C         1.321301        -0.017780         0.216483
 C         2.077164         1.300564         0.006859
 O         3.486773         0.869569         0.106927
 C         3.323981        -0.621600         0.022608
 C         2.227112        -1.159044         0.994807
 C         1.776796        -2.187331        -0.089500
 C         2.154327        -0.945408        -0.895455
 O         2.083735        -0.477373        -2.222992
 H        -0.262639         0.937710         1.114416
 H        -0.630647         0.588706        -0.513713
 H        -0.632003        -0.734168         0.856270
 H         1.943360         1.773669        -0.942354
 H         1.965131         1.990593         0.781376
 H         4.374425        -1.099772        -0.116024
 H         2.377819        -1.414435         2.063720
 H         2.369211        -3.122152        -0.237483
 H         0.658062        -2.355993         0.010210
 H         1.929711        -1.223921        -2.934031
