19
Iteration:  2741charge 0 multiplicity 1
 C        -0.129311        -0.316916         0.394491
 C         1.293239        -0.008700         0.294888
 C         1.949928         1.361250         0.367644
 O         3.371245         1.078730         0.078634
 C         3.265402        -0.423787        -0.105484
 C         2.240487        -1.004029         0.919836
 C         1.956071        -2.196842        -0.161151
 C         2.089329        -0.844331        -0.944343
 O         2.279231        -0.731389        -2.293100
 H        -0.560732        -0.072073         1.298608
 H        -0.609373         0.353632        -0.326495
 H        -0.402873        -1.360633         0.161896
 H         1.555638         1.965254        -0.440580
 H         1.842835         2.033028         1.252417
 H         4.296915        -0.770008        -0.208504
 H         2.181672        -1.136436         1.969629
 H         2.839171        -2.748851        -0.312505
 H         1.031373        -2.662825        -0.165401
 H         1.500853        -0.804869        -2.910937
