19
Iteration:   315charge 0 multiplicity 1
 C        -0.161148         0.040603         0.413317
 C         1.325246         0.102193         0.129270
 C         2.223873         1.408054         0.064525
 O         3.605050         0.828246         0.031711
 C         3.300408        -0.651960         0.096202
 C         2.085387        -1.102205         0.923161
 C         1.786921        -2.167049        -0.137480
 C         2.075814        -0.870259        -0.826686
 O         2.064485        -0.609449        -2.173536
 H        -0.390381         0.414861         1.444991
 H        -0.697575         0.692210        -0.232608
 H        -0.568122        -1.024641         0.305369
 H         2.034202         1.960871        -0.850112
 H         1.983210         1.990285         0.896307
 H         4.060398        -1.298101         0.189149
 H         2.215667        -1.250197         1.960956
 H         2.578354        -3.012420        -0.173017
 H         0.796688        -2.528548        -0.422425
 H         1.701852        -1.404310        -2.719345
