19
Iteration:   877
 C        -0.081923        -0.062769         0.096877
 C         1.406930        -0.043944         0.262877
 C         2.094143         1.297505         0.234633
 O         3.434280         0.876146         0.176606
 C         3.404530        -0.531434        -0.047665
 C         2.306286        -1.088492         0.983344
 C         1.881982        -2.154304        -0.063414
 C         2.162352        -0.843294        -0.902237
 O         1.830831        -0.633954        -2.199323
 H        -0.558527         0.728338         0.627913
 H        -0.435666         0.323586        -1.018695
 H        -0.762556        -0.900703         0.324672
 H         1.819653         1.770895        -0.692953
 H         1.852528         1.915165         1.136943
 H         4.387918        -1.050441        -0.198187
 H         2.557842        -1.224831         2.078126
 H         2.402305        -3.121076        -0.309351
 H         0.815281        -2.446046         0.044346
 H         1.646616         0.391451        -2.317669
