19
Iteration:   777
 C        -0.286467         0.017896         0.463031
 C         1.353816         0.011729         0.337767
 C         2.060972         1.272654         0.195095
 O         3.410668         0.876302         0.095932
 C         3.368157        -0.485795        -0.110403
 C         2.306348        -1.089573         0.976758
 C         1.826182        -2.113769        -0.179977
 C         2.148911        -0.824008        -0.951908
 O         2.120969        -0.769841        -2.291520
 H        -0.666331        -0.255878         1.393971
 H        -0.847643         1.056712         0.308116
 H        -0.634885        -0.540742        -0.307649
 H         1.615747         1.762610        -0.678566
 H         2.054871         1.978881         1.111736
 H         4.244635        -1.052362        -0.137484
 H         2.420756        -1.210665         1.990658
 H         2.375285        -3.091060        -0.421859
 H         0.768237        -2.354857        -0.122339
 H         2.887365        -0.324063        -2.694856
