19
Iteration:  4700charge 0 multiplicity 1
 C        -0.114080        -0.343102         0.239025
 C         1.335959         0.024482         0.148162
 C         2.016130         1.390128         0.196342
 O         3.357387         1.114317         0.043789
 C         3.358016        -0.378045        -0.003543
 C         2.288827        -0.930916         1.030148
 C         2.014219        -2.107577        -0.004458
 C         2.133369        -0.859265        -0.869817
 O         1.989642        -0.976604        -2.223064
 H        -0.410932        -1.276916         0.910364
 H        -0.664242         0.632515         0.216937
 H        -0.484941        -0.761280        -0.757547
 H         1.705440         2.135142        -0.652490
 H         1.794613         1.852859         1.195896
 H         4.227707        -0.949613        -0.194567
 H         2.497352        -0.870309         2.116635
 H         2.806427        -2.782506        -0.094629
 H         0.998396        -2.501435        -0.010912
 H         1.645681        -0.084265        -2.612385
