19
Iteration:  2923
 C        -0.230167        -0.017838         0.453977
 C         1.287490        -0.204743         0.178246
 C         1.850187         1.223583         0.286227
 O         3.314180         1.010605         0.148313
 C         3.358734        -0.344414        -0.000824
 C         2.294392        -1.056436         0.967131
 C         2.092183        -2.224723        -0.129619
 C         2.241534        -0.870360        -0.953468
 O         2.134378        -0.714645        -2.437393
 H        -0.211068         0.258445         1.541956
 H        -0.501771         0.760591        -0.178442
 H        -0.846695        -0.960789         0.248528
 H         1.502127         1.769652        -0.639388
 H         1.501837         1.824397         1.224220
 H         4.388717        -0.731905        -0.045776
 H         2.210493        -1.279125         1.999546
 H         3.016705        -2.921816        -0.286463
 H         1.071358        -2.568588        -0.099889
 H         2.017651         0.194675        -2.688227
