19
Iteration:  4806charge 0 multiplicity 1
 C        -0.113575        -0.316551         0.455764
 C         1.344540        -0.012178         0.084248
 C         1.915295         1.396689         0.003049
 O         3.301609         1.100685        -0.011549
 C         3.294570        -0.436514         0.002416
 C         2.255461        -0.888475         0.997481
 C         1.909438        -2.144388         0.144597
 C         2.133502        -0.907980        -0.908001
 O         2.177716        -0.866881        -2.294540
 H        -0.492235        -1.202579         0.059617
 H        -0.268162        -0.547668         1.495425
 H        -0.746279         0.519092         0.242006
 H         1.781659         2.072854        -0.775049
 H         1.754708         1.879420         0.967674
 H         4.264126        -0.848487        -0.049925
 H         2.409181        -0.736252         2.146039
 H         2.877337        -2.909840         0.078831
 H         0.930468        -2.691289         0.166061
 H         2.998620        -0.413944        -2.721084
