19
Iteration:  2130
 C        -0.221880        -0.122416         0.212978
 C         1.328072        -0.134950         0.259747
 C         2.008762         1.351887         0.364170
 O         3.422281         1.054588         0.230194
 C         3.382335        -0.342418         0.089611
 C         2.348398        -1.080289         0.917502
 C         2.116945        -2.147844        -0.219469
 C         2.146514        -0.840033        -0.999999
 O         1.886686        -0.762250        -2.314515
 H        -0.642738         0.531769         1.006173
 H        -0.520593         0.346187        -0.764502
 H        -0.838995        -1.102773         0.262081
 H         1.446265         1.918692        -0.496854
 H         1.854858         1.931270         1.339842
 H         4.353783        -0.735211        -0.111382
 H         2.392504        -1.413488         1.884251
 H         2.889852        -2.905717        -0.390416
 H         1.186038        -2.591389        -0.133336
 H         1.684648        -1.707731        -2.659315
