19
Iteration:  1625
 C        -0.161882        -0.210347         0.184406
 C         1.349096        -0.065152         0.221119
 C         2.010742         1.328511         0.153667
 O         3.475802         0.954359         0.191172
 C         3.381153        -0.437148         0.038279
 C         2.317876        -1.092583         0.947633
 C         1.909486        -2.110784        -0.107101
 C         2.141727        -0.823294        -0.826632
 O         1.949049        -0.587135        -2.258250
 H        -0.473809        -0.405350         1.204898
 H        -0.539196         0.776882        -0.118217
 H        -0.409985        -1.082640        -0.484051
 H         1.779741         1.874305        -0.757811
 H         1.836702         2.057789         0.952968
 H         4.345713        -0.862014        -0.148595
 H         2.404658        -1.234042         2.009941
 H         2.616592        -2.966971        -0.124255
 H         0.881730        -2.515163        -0.114398
 H         1.441879        -1.431004        -2.600697
