19
Iteration:  4306
 C        -0.217474        -0.170169         0.521580
 C         1.273893        -0.051486         0.229014
 C         1.822623         1.248266         0.220343
 O         3.293653         0.980776         0.081165
 C         3.302517        -0.405241        -0.013224
 C         2.277722        -1.103733         0.895379
 C         2.152355        -2.230275        -0.162400
 C         2.170582        -0.818924        -0.940781
 O         2.164905        -0.602315        -2.323946
 H        -0.469778         0.251329         1.373934
 H        -0.774459         0.552173        -0.071392
 H        -0.503277        -1.214866         0.424677
 H         1.586841         1.861049        -0.618494
 H         1.658007         1.821274         1.144792
 H         4.253527        -0.822139        -0.178789
 H         2.427778        -1.206841         2.077730
 H         3.089974        -2.880143        -0.324379
 H         1.170015        -2.757469        -0.172401
 H         2.888180        -0.131908        -2.697764
