19
Iteration:  3424charge 0 multiplicity 1
 C        -0.175530        -0.329280         0.395348
 C         1.289109        -0.030224         0.111045
 C         1.921474         1.352213         0.299717
 O         3.368300         1.078213         0.080992
 C         3.379564        -0.408970        -0.052509
 C         2.326001        -1.069687         0.962856
 C         1.875192        -2.081160        -0.137364
 C         2.198069        -0.810283        -0.910166
 O         2.116723        -0.781767        -2.274262
 H        -0.206586        -0.964199         1.349954
 H        -0.878421         0.474177         0.513164
 H        -0.818253        -1.024169        -0.326135
 H         1.580909         1.964045        -0.448676
 H         1.767148         1.735595         1.213591
 H         4.523451        -0.674845        -0.010232
 H         2.350656        -1.108420         2.042765
 H         2.569557        -2.983131        -0.387173
 H         0.873014        -2.456728        -0.306615
 H         2.767971        -0.025133        -2.503637
