19
Iteration:  3665charge 0 multiplicity 1
 C        -0.181254        -0.315819         0.162823
 C         1.335569        -0.074865         0.253512
 C         1.985214         1.356994         0.527808
 O         3.447860         1.074151         0.277652
 C         3.399512        -0.358294        -0.071312
 C         2.385781        -1.081322         0.858906
 C         1.996743        -2.183241        -0.162514
 C         2.077162        -0.810985        -0.952186
 O         1.913607        -0.748849        -2.352875
 H        -0.457864        -0.744206        -0.803143
 H        -0.528938        -1.088682         0.844155
 H        -0.744463         0.635890         0.072327
 H         1.582423         2.201953        -0.100733
 H         1.583154         1.764816         1.563608
 H         4.420472        -0.779752        -0.339708
 H         2.565281        -1.295379         1.908621
 H         2.764613        -2.811721        -0.526068
 H         1.006589        -2.547312        -0.108267
 H         2.096743         0.217675        -2.629246
