19
Iteration:  2437charge 0 multiplicity 1
 C        -0.244800        -0.209911         0.290687
 C         1.257810         0.026293         0.153575
 C         2.039323         1.382945         0.364712
 O         3.385024         1.005375         0.219874
 C         3.352951        -0.366239        -0.075723
 C         2.231021        -1.051484         0.914493
 C         2.084695        -2.123302        -0.117077
 C         2.197883        -0.881559        -0.914974
 O         2.023060        -0.855846        -2.365631
 H        -0.673178         0.271067         1.203215
 H        -0.931761        -0.094891        -0.593799
 H        -0.333826        -1.235404         0.765537
 H         1.803958         2.099865        -0.449295
 H         1.914807         1.707102         1.425552
 H         4.536863        -0.628064        -0.218624
 H         2.314140        -1.278191         2.009900
 H         2.846981        -2.865159        -0.315308
 H         1.035320        -2.550703        -0.110855
 H         1.986190         0.006973        -2.699147
