19
Iteration:  2035
 C        -0.113002        -0.131370         0.473668
 C         1.315100        -0.087710         0.133966
 C         1.918858         1.300904         0.141670
 O         3.299752         1.028813         0.145298
 C         3.260252        -0.448456         0.037152
 C         2.262175        -1.087649         0.930402
 C         2.045454        -2.282266        -0.098854
 C         2.126887        -0.947570        -0.972989
 O         2.236394        -0.547497        -2.327692
 H        -0.140528         0.081323         1.609863
 H        -0.787659         0.566840         0.067141
 H        -0.606851        -1.002610         0.240971
 H         1.602695         1.922213        -0.658076
 H         1.674072         1.922686         0.979172
 H         4.240724        -0.846556        -0.316026
 H         2.302007        -0.974479         1.985477
 H         2.941049        -3.010365        -0.068380
 H         1.100916        -2.875100        -0.057903
 H         1.369537        -0.126274        -2.532929
