19
Iteration:  1309
 C        -0.138998        -0.034758         0.406170
 C         1.305849        -0.012388         0.322204
 C         2.064885         1.345243         0.185302
 O         3.479128         0.887400         0.033955
 C         3.286802        -0.518204        -0.015023
 C         2.255588        -1.057960         0.950771
 C         1.850374        -2.156907        -0.137502
 C         2.018754        -0.840020        -0.875526
 O         2.216170        -0.650222        -2.311931
 H        -0.396534        -0.070229         1.588298
 H        -0.564469         0.780756        -0.094156
 H        -0.520122        -1.005014        -0.169794
 H         1.507716         1.712058        -0.708506
 H         1.941014         1.987229         1.097211
 H         4.322166        -1.000066        -0.232580
 H         2.141220        -1.295336         2.039081
 H         2.513893        -3.005070        -0.143609
 H         0.804641        -2.497114        -0.122765
 H         1.475339        -0.949417        -2.767163
