19
Iteration:  4274
 C        -0.218740        -0.176016         0.488293
 C         1.275493        -0.093984         0.211162
 C         1.869246         1.240064         0.261282
 O         3.315862         1.014299         0.146020
 C         3.303131        -0.356360        -0.018037
 C         2.296432        -1.109300         0.863075
 C         2.114092        -2.217044        -0.221506
 C         2.184881        -0.778105        -0.934169
 O         2.160308        -0.696150        -2.323130
 H        -0.355280         0.821593         1.109100
 H        -0.735977        -0.164113        -0.478955
 H        -0.533319        -0.927879         1.207764
 H         1.532925         1.905895        -0.530182
 H         1.538672         1.696248         1.129160
 H         4.264184        -0.735053        -0.178807
 H         2.395700        -1.196704         2.056023
 H         2.922176        -2.944698        -0.371936
 H         1.150540        -2.762472        -0.260343
 H         2.363376         0.250631        -2.576943
