19
Iteration:   959
 C        -0.183201         0.028632         0.468680
 C         1.365509        -0.007333         0.181334
 C         2.033883         1.304260         0.417572
 O         3.396795         0.954298         0.199465
 C         3.371242        -0.430956        -0.030479
 C         2.323833        -1.164130         0.867401
 C         1.746289        -2.107416        -0.206245
 C         2.086088        -0.881299        -1.037697
 O         2.142667        -0.861930        -2.406401
 H        -0.636811         0.855251        -0.241802
 H        -0.679977        -0.851345         0.480729
 H        -0.180448         0.423337         1.530640
 H         1.672778         2.162083        -0.228373
 H         1.977124         1.712154         1.467987
 H         4.333446        -0.844761        -0.186841
 H         2.346357        -1.190969         1.941874
 H         2.200700        -3.078067        -0.412858
 H         0.672485        -2.316110        -0.210514
 H         2.796593        -0.114743        -2.687244
