19
Iteration:   725charge 0 multiplicity 1
 C        -0.206919        -0.063286         0.144979
 C         1.376434        -0.020093         0.195980
 C         2.145201         1.300542         0.306554
 O         3.534460         0.850933         0.156865
 C         3.400133        -0.532446         0.021205
 C         2.277910        -0.995250         0.952344
 C         1.940341        -2.129519        -0.036832
 C         2.126867        -0.898842        -0.951257
 O         1.811021        -0.674715        -2.283144
 H        -0.680570         0.243810         1.043973
 H        -0.522425         0.644827        -0.626495
 H        -0.641716        -1.014820        -0.212038
 H         1.852760         2.037768        -0.461005
 H         2.149312         1.856582         1.265048
 H         4.217475        -1.179656        -0.089754
 H         2.510352        -1.006798         2.010676
 H         2.725567        -2.884357        -0.128359
 H         0.954337        -2.499700        -0.070586
 H         1.246961         0.189233        -2.229382
