19
Iteration:   343charge 0 multiplicity 1
 C        -0.142948         0.194475         0.254417
 C         1.330466        -0.020553         0.235045
 C         2.204653         1.223051         0.164963
 O         3.507745         0.816881         0.180292
 C         3.315925        -0.542786        -0.032758
 C         2.219888        -1.074048         0.978019
 C         1.872743        -2.153227        -0.025118
 C         2.059064        -0.874000        -0.870423
 O         1.994908        -0.657550        -2.329988
 H        -0.483822         0.370525         1.271609
 H        -0.308905         1.197941        -0.210349
 H        -0.757067        -0.602415        -0.156833
 H         1.960807         1.762275        -0.815068
 H         1.925101         1.949592         1.021526
 H         4.252088        -1.210374        -0.252371
 H         2.403395        -1.205480         2.105202
 H         2.571692        -2.948895        -0.025493
 H         0.818555        -2.422519        -0.183167
 H         1.320681        -1.329673        -2.729354
