19
Iteration:  1511charge 0 multiplicity 1
 C        -0.209243        -0.137238         0.508781
 C         1.240650         0.020076         0.075521
 C         2.040943         1.327345         0.287308
 O         3.422961         0.914711         0.145183
 C         3.317116        -0.511837         0.014071
 C         2.179658        -0.978116         0.894893
 C         1.942629        -2.131215        -0.133866
 C         2.203366        -0.858723        -1.021170
 O         2.217268        -0.732119        -2.361564
 H        -0.577533         0.777851         0.972062
 H        -1.034231        -0.205484        -0.246836
 H        -0.197943        -0.840519         1.329947
 H         1.742104         2.163597        -0.360066
 H         1.866609         1.824320         1.299046
 H         4.262729        -1.162861        -0.005398
 H         2.162366        -1.088749         2.019964
 H         2.688295        -2.992800        -0.303041
 H         0.954813        -2.669128         0.066708
 H         1.375423        -0.344959        -2.751475
