19
Iteration:  2873
 C        -0.224066        -0.306100         0.367575
 C         1.272234        -0.093479         0.172792
 C         1.990762         1.304140         0.276985
 O         3.397282         1.032546         0.084751
 C         3.321381        -0.452896        -0.033666
 C         2.302866        -1.035592         0.978946
 C         1.990443        -2.060793        -0.081164
 C         2.084797        -0.851043        -0.938156
 O         2.099399        -0.664357        -2.338659
 H        -0.496390         0.058132         1.315250
 H        -0.693510         0.092201        -0.612803
 H        -0.357177        -1.371216         0.348686
 H         1.577748         2.118067        -0.345097
 H         1.810167         1.556304         1.465543
 H         4.306346        -0.830928        -0.222564
 H         2.482423        -1.039963         2.070423
 H         2.727057        -2.795390        -0.186673
 H         1.010770        -2.496865        -0.129481
 H         2.876158        -0.081413        -2.490129
