19
Iteration:  2694charge 0 multiplicity 1
 C        -0.208752        -0.049261         0.441008
 C         1.335855        -0.180417         0.157080
 C         1.892304         1.255076         0.181045
 O         3.294609         1.055658         0.163181
 C         3.337815        -0.342189        -0.008030
 C         2.231280        -1.086457         0.932564
 C         2.105214        -2.253226        -0.152880
 C         2.234217        -0.912524        -0.939092
 O         2.146159        -0.656149        -2.319437
 H        -0.353288         0.353844         1.497344
 H        -0.503783         0.647779        -0.322967
 H        -0.593360        -1.117620         0.352163
 H         1.584214         2.178285        -0.415260
 H         1.585264         1.710278         1.257871
 H         4.405504        -0.699901        -0.122053
 H         2.141573        -1.384859         2.006566
 H         3.097238        -2.702417        -0.151664
 H         1.185677        -2.757180        -0.136327
 H         1.323812        -0.643758        -2.734215
