19
Iteration:    16
 C        -0.117470         0.182336         0.142129
 C         1.377740        -0.019794         0.370864
 C         2.168582         1.271438         0.251788
 O         3.545624         0.852749         0.043731
 C         3.327174        -0.543095        -0.061104
 C         2.207222        -1.160034         0.969023
 C         1.806400        -2.187725        -0.114107
 C         2.098474        -0.847919        -0.822983
 O         1.912305        -0.586133        -2.164378
 H        -0.624003         0.760845         0.905022
 H        -0.314286         0.595885        -0.879230
 H        -0.565001        -0.742734         0.237535
 H         1.769358         1.529708        -0.871521
 H         2.174393         2.070931         1.016196
 H         4.279528        -1.092021        -0.342677
 H         2.439345        -1.467974         1.980167
 H         2.435668        -3.101002        -0.137250
 H         0.783270        -2.551077        -0.112207
 H         1.934882        -1.456934        -2.606397
