19
Iteration:  4679
 C        -0.185204        -0.226378         0.360357
 C         1.316573        -0.038039         0.171991
 C         1.871465         1.345915         0.095131
 O         3.367769         1.021055         0.056012
 C         3.377496        -0.325815        -0.006145
 C         2.324852        -0.969105         0.986303
 C         2.023563        -2.132829         0.004081
 C         2.204978        -0.862437        -0.877529
 O         2.033443        -0.892009        -2.294226
 H        -0.418376        -0.922453         1.258790
 H        -0.768763         0.731545         0.232634
 H        -0.578928        -0.939726        -0.431416
 H         1.538188         1.942228        -0.763210
 H         1.864227         1.981372         0.990822
 H         4.401901        -0.730157         0.022137
 H         2.336294        -0.998878         2.068087
 H         2.745272        -2.920266         0.003702
 H         1.006410        -2.529433         0.271882
 H         2.305499        -0.030103        -2.580665
