19
Iteration:  3583
 C        -0.295877        -0.103003         0.483742
 C         1.297624        -0.162514         0.215990
 C         1.861440         1.249628         0.234074
 O         3.280775         0.952901         0.093548
 C         3.324968        -0.422416        -0.003906
 C         2.433655        -1.129658         0.896038
 C         2.085524        -2.139217        -0.188350
 C         2.127966        -0.835410        -0.935536
 O         2.158513        -0.548829        -2.305291
 H        -0.565748         0.978893         0.352947
 H        -0.836812        -0.915611        -0.232180
 H        -0.385286        -0.579623         1.422354
 H         1.514770         1.668541        -0.640549
 H         1.563750         1.613117         1.197081
 H         4.325530        -0.660444        -0.147169
 H         2.457888        -1.303810         2.004237
 H         2.839970        -2.924279        -0.377594
 H         1.092406        -2.690846        -0.091852
 H         2.993682         0.011407        -2.451745
