19
Iteration:  2974
 C        -0.200004        -0.363748         0.210694
 C         1.331370        -0.032365         0.297652
 C         2.051426         1.283020         0.334346
 O         3.407355         1.078303         0.153981
 C         3.345503        -0.384354         0.049995
 C         2.281650        -0.988315         0.904856
 C         2.002064        -2.033331        -0.165844
 C         2.203125        -0.784205        -0.918486
 O         1.916017        -0.824908        -2.340678
 H        -0.711872        -0.143742         1.159789
 H        -0.636077         0.363970        -0.562995
 H        -0.291426        -1.394594        -0.055194
 H         1.530459         1.991859        -0.262016
 H         1.804958         1.737647         1.318878
 H         4.371672        -0.883384        -0.005016
 H         2.362673        -1.355831         2.046948
 H         2.788266        -2.805583        -0.190118
 H         1.015666        -2.620587        -0.071384
 H         2.462907        -0.152091        -2.873913
