19
Iteration:  2253charge 0 multiplicity 1
 C        -0.135741        -0.034705         0.386009
 C         1.265341        -0.079497         0.141281
 C         1.916857         1.307255         0.326827
 O         3.284481         1.027363         0.146828
 C         3.394828        -0.393239        -0.002992
 C         2.266326        -1.000161         0.906470
 C         2.030523        -2.228457        -0.174622
 C         2.225430        -0.916538        -0.936495
 O         2.084477        -0.816443        -2.331001
 H        -0.386432         0.020557         1.522381
 H        -0.546681         0.810906        -0.090521
 H        -0.549309        -0.974170         0.100964
 H         1.557439         2.004469        -0.451780
 H         1.718359         1.580784         1.383570
 H         4.461314        -0.851191        -0.124054
 H         2.444216        -1.110995         1.999451
 H         2.842731        -2.950333        -0.210017
 H         1.047592        -2.752294        -0.230298
 H         1.998891         0.135146        -2.639586
