19
Iteration:  2447
 C        -0.241283        -0.173995         0.299536
 C         1.308902        -0.033061         0.232348
 C         1.937875         1.371834         0.350519
 O         3.413934         1.011215         0.181142
 C         3.324564        -0.419024        -0.077871
 C         2.260062        -1.049700         0.939783
 C         2.104603        -2.183263        -0.120414
 C         2.197420        -0.823362        -0.986107
 O         2.007949        -0.825734        -2.316842
 H        -0.727587         0.380073         1.037511
 H        -0.658564         0.241462        -0.677420
 H        -0.456354        -1.297301         0.234427
 H         1.797183         2.268812        -0.276238
 H         1.756183         1.843222         1.306441
 H         4.434011        -0.836334        -0.348517
 H         2.297012        -1.122735         2.044828
 H         2.971705        -2.852868         0.038766
 H         1.141265        -2.774605        -0.062370
 H         2.044212         0.052614        -2.703233
