19
Iteration:  1450charge 0 multiplicity 1
 C        -0.208204        -0.062696         0.149472
 C         1.313778        -0.067950         0.212155
 C         2.028678         1.289345         0.255527
 O         3.519586         0.952818         0.077289
 C         3.329863        -0.460745        -0.011366
 C         2.311498        -1.168324         1.063313
 C         2.005053        -2.159470        -0.105338
 C         2.134970        -0.827353        -0.859109
 O         1.904571        -0.551205        -2.197800
 H        -0.510744         0.861913         0.576858
 H        -0.488792        -0.182585        -0.898238
 H        -0.742134        -0.946068         0.630091
 H         1.816694         1.880308        -0.640636
 H         2.082505         1.757850         1.200146
 H         4.342560        -0.953446        -0.290988
 H         2.254381        -1.419760         2.137252
 H         2.674434        -2.899673        -0.483291
 H         0.982878        -2.495366         0.000171
 H         1.871268        -1.384400        -2.675001
