19
Iteration:  1896
 C        -0.303552        -0.140629         0.372597
 C         1.312857        -0.081856         0.240941
 C         1.971765         1.314163         0.125812
 O         3.380690         1.028141         0.193394
 C         3.392207        -0.414296         0.007826
 C         2.354881        -1.140163         0.973888
 C         1.990888        -2.181139        -0.143046
 C         2.161860        -0.901478        -0.878587
 O         2.077653        -0.684418        -2.332145
 H        -0.429275         0.203235         1.384391
 H        -0.694465         0.490024        -0.451790
 H        -0.642623        -1.124994         0.140902
 H         1.650783         1.796694        -0.800771
 H         1.793595         2.097277         0.826291
 H         4.424896        -0.770184        -0.098096
 H         2.443785        -1.336480         2.087362
 H         2.457694        -3.030302        -0.504009
 H         0.923947        -2.338849        -0.106347
 H         2.225913         0.202318        -2.569803
