19
Iteration:  3160
 C        -0.163648        -0.136029         0.151699
 C         1.318162        -0.162188         0.219332
 C         1.900525         1.278892         0.265566
 O         3.391807         1.041088         0.152569
 C         3.304200        -0.343027        -0.088787
 C         2.346088        -1.065201         0.970275
 C         2.162138        -2.228680        -0.045102
 C         2.111429        -0.910160        -0.877841
 O         1.937090        -0.644779        -2.246372
 H        -0.673677         0.060193         1.101591
 H        -0.560522         0.662702        -0.534025
 H        -0.554791        -1.128809        -0.197766
 H         1.496777         1.998425        -0.421619
 H         1.577466         1.720086         1.169222
 H         4.277180        -0.675704        -0.338322
 H         2.476540        -1.411633         2.087824
 H         3.013759        -2.882303        -0.057174
 H         1.311643        -2.765222         0.125734
 H         2.676989         0.026448        -2.498112
