19
Iteration:  4971charge 0 multiplicity 1
 C        -0.190259        -0.135321         0.379179
 C         1.326479        -0.128445         0.178802
 C         1.895167         1.321434         0.100377
 O         3.201986         1.045274        -0.090064
 C         3.360719        -0.397119        -0.005470
 C         2.259250        -0.990471         1.032999
 C         2.118189        -2.212854         0.050029
 C         2.165014        -0.916863        -0.874606
 O         2.148287        -0.763590        -2.244546
 H        -0.255952        -0.467585         1.455396
 H        -0.624940         0.861892         0.363485
 H        -0.672890        -0.511993        -0.485856
 H         1.478759         1.676191        -0.873136
 H         1.697776         1.957800         0.985156
 H         4.309397        -0.818110        -0.093151
 H         2.280546        -0.884279         2.165045
 H         3.113964        -2.862025        -0.144253
 H         1.131737        -2.710126         0.085798
 H         2.771963        -0.090173        -2.370377
