19
Iteration:  1120charge 0 multiplicity 1
 C        -0.131934         0.131228         0.368770
 C         1.356004        -0.087376         0.179049
 C         2.010606         1.256312         0.352447
 O         3.438345         0.958378         0.241797
 C         3.384201        -0.530833        -0.045738
 C         2.309726        -1.131563         0.879229
 C         1.841474        -2.144632        -0.195790
 C         2.098613        -0.838524        -0.936758
 O         2.059313        -0.702346        -2.352563
 H        -0.590316         0.761037        -0.392232
 H        -0.761239        -0.745889         0.408413
 H        -0.367061         0.640503         1.396104
 H         1.860477         1.922815        -0.466764
 H         1.830065         1.827727         1.255521
 H         4.364821        -0.954125        -0.125143
 H         2.498990        -1.306275         1.927464
 H         2.348394        -3.047142        -0.409165
 H         0.779419        -2.340572        -0.243245
 H         1.712217        -1.560736        -2.716606
