19
Iteration:  3689charge 0 multiplicity 1
 C        -0.198604        -0.147027         0.174314
 C         1.360922        -0.167091         0.219305
 C         1.916862         1.223301         0.434316
 O         3.305657         0.966669         0.190045
 C         3.390036        -0.370721        -0.008226
 C         2.387481        -1.083061         0.906654
 C         2.146457        -2.107498        -0.244811
 C         2.200826        -0.815185        -0.915974
 O         1.863568        -0.659417        -2.245853
 H        -0.633363        -0.947317        -0.432710
 H        -0.501731        -0.317246         1.093411
 H        -0.513869         0.795069        -0.280443
 H         1.416613         2.076438        -0.136398
 H         1.758794         1.565462         1.503032
 H         4.353249        -0.730425        -0.140943
 H         2.582219        -1.451138         1.945807
 H         2.942445        -2.668989        -0.577860
 H         1.149919        -2.621958        -0.177103
 H         2.339464         0.136932        -2.610214
