19
Iteration:   942charge 0 multiplicity 1
 C        -0.200264         0.012804         0.348828
 C         1.328878        -0.030804         0.229326
 C         2.069431         1.304736         0.405501
 O         3.509965         0.969761         0.197110
 C         3.338262        -0.501953        -0.094087
 C         2.268323        -1.105923         0.886330
 C         1.833927        -2.119930        -0.198879
 C         2.102512        -0.799855        -0.896567
 O         2.027811        -0.834764        -2.343060
 H        -0.432965         0.905321        -0.172367
 H        -0.727351        -0.838138        -0.319854
 H        -0.616189        -0.132809         1.337013
 H         1.838536         1.992035        -0.410859
 H         1.902505         1.727553         1.391231
 H         4.398224        -0.829360        -0.273628
 H         2.505450        -1.407694         1.943220
 H         2.419048        -3.029108        -0.479575
 H         0.796265        -2.434198         0.020144
 H         2.476175        -0.079786        -2.786766
