19
Iteration:  3517charge 0 multiplicity 1
 C        -0.224827        -0.282051         0.181754
 C         1.337029        -0.085697         0.186299
 C         1.942810         1.326368         0.404970
 O         3.426266         1.057879         0.228931
 C         3.384758        -0.338367        -0.101370
 C         2.370326        -1.040180         0.911284
 C         2.072045        -2.138527        -0.085747
 C         2.148968        -0.845584        -0.940198
 O         1.904050        -0.772892        -2.276142
 H        -0.782771         0.156405         1.032101
 H        -0.592314         0.214309        -0.824116
 H        -0.526920        -1.306842        -0.006324
 H         1.754142         1.951117        -0.398086
 H         1.816113         1.733546         1.465653
 H         4.297625        -0.750691        -0.284345
 H         2.456561        -1.116349         2.032452
 H         2.792625        -2.904340        -0.159969
 H         1.078083        -2.651221        -0.160069
 H         2.103505         0.110684        -2.544883
