19
Iteration:  1951charge 0 multiplicity 1
 C        -0.272148        -0.185380         0.079660
 C         1.308555        -0.096314         0.150322
 C         2.008742         1.237121         0.456735
 O         3.457961         1.020526         0.115632
 C         3.407082        -0.359433        -0.005012
 C         2.358739        -1.045446         0.914015
 C         2.053217        -2.165040         0.009999
 C         2.142339        -0.905289        -0.943112
 O         1.851676        -0.583803        -2.267585
 H        -0.820406         0.530054         0.718647
 H        -0.404511         0.291464        -0.952413
 H        -0.622473        -1.223054         0.329714
 H         1.573321         2.065237        -0.196532
 H         2.044208         1.428962         1.581900
 H         4.412307        -0.867336        -0.071280
 H         2.597247        -1.018756         2.084693
 H         2.833236        -2.838019        -0.225128
 H         1.111835        -2.733864         0.155377
 H         2.293053        -1.227413        -2.868483
