19
Iteration:  1130charge 0 multiplicity 1
 C        -0.136799         0.059741         0.411478
 C         1.336029        -0.058023         0.273376
 C         2.066463         1.291014         0.272997
 O         3.413139         0.887697         0.218295
 C         3.298017        -0.468116        -0.089536
 C         2.278120        -1.158004         0.894450
 C         1.779112        -2.140684        -0.173369
 C         2.130996        -0.790170        -0.968570
 O         2.163665        -0.693498        -2.360425
 H        -0.395311         0.924715        -0.144183
 H        -0.854350        -0.782727         0.334940
 H        -0.096148         0.378457         1.488310
 H         1.708180         1.840824        -0.606291
 H         1.892669         1.841021         1.183780
 H         4.273950        -0.858346        -0.211063
 H         2.341485        -1.288295         1.970778
 H         2.466253        -2.903025        -0.479017
 H         0.763227        -2.477887        -0.002521
 H         1.710721        -1.462857        -2.636318
