19
Iteration:  3648charge 0 multiplicity 1
 C        -0.107932        -0.355506         0.220567
 C         1.314814        -0.002553         0.191049
 C         2.002429         1.289087         0.465190
 O         3.385415         1.003671         0.283241
 C         3.328881        -0.374610        -0.069729
 C         2.337727        -1.046903         0.905215
 C         2.001083        -2.080452        -0.219777
 C         2.157148        -0.782468        -0.996568
 O         1.945276        -0.744978        -2.334737
 H        -0.566814        -0.564218        -0.801668
 H        -0.397520        -1.298009         0.879980
 H        -0.738580         0.377635         0.728106
 H         1.715031         2.148704        -0.187010
 H         1.970575         1.646501         1.455281
 H         4.307910        -0.747800        -0.142626
 H         2.404368        -1.029765         2.029676
 H         2.742643        -2.918145        -0.251421
 H         0.932749        -2.563802        -0.121532
 H         1.984097         0.199554        -2.640960
