19
Iteration:  1394charge 0 multiplicity 1
 C        -0.202780        -0.054754         0.212032
 C         1.333086        -0.022260         0.206044
 C         2.113475         1.311161         0.346890
 O         3.532538         1.002495         0.215304
 C         3.370505        -0.431601        -0.041618
 C         2.318217        -1.067664         0.900282
 C         1.897150        -2.144950        -0.134287
 C         2.087262        -0.842772        -0.909571
 O         1.837125        -0.870935        -2.266601
 H        -0.779918         0.069062         1.059665
 H        -0.450509         0.818522        -0.351443
 H        -0.626094        -1.006435        -0.194150
 H         1.855199         2.027588        -0.439634
 H         2.008465         1.925160         1.213324
 H         4.486012        -0.775943        -0.128467
 H         2.509738        -1.187056         1.992127
 H         2.607313        -2.906605        -0.414194
 H         0.888248        -2.568725        -0.147098
 H         2.634375        -0.325224        -2.644330
