19
Iteration:  2929
 C        -0.201839        -0.051071         0.446146
 C         1.266827        -0.200041         0.116867
 C         1.884137         1.211316         0.284447
 O         3.302939         1.017606         0.187689
 C         3.389965        -0.358672        -0.003467
 C         2.304467        -1.087640         0.899371
 C         2.119113        -2.180657        -0.103838
 C         2.151384        -0.823638        -0.977278
 O         2.136589        -0.748019        -2.384201
 H        -0.366299         0.250200         1.473622
 H        -0.644435         0.865592        -0.145923
 H        -0.775028        -0.910254         0.260753
 H         1.515353         1.813237        -0.541474
 H         1.588889         1.820778         1.213315
 H         4.447772        -0.724110        -0.006071
 H         2.369218        -0.995364         2.076084
 H         2.816114        -2.943234        -0.263057
 H         1.091860        -2.691352        -0.113300
 H         2.014475         0.224697        -2.685871
