19
Iteration:  4736charge 0 multiplicity 1
 C        -0.183528        -0.138742         0.117955
 C         1.334154        -0.100215         0.116759
 C         1.940849         1.295511         0.228192
 O         3.323415         1.128214         0.047187
 C         3.353796        -0.381507        -0.031835
 C         2.357133        -0.903667         1.024494
 C         2.161883        -2.154990         0.072879
 C         2.190262        -0.912509        -0.821190
 O         1.904941        -0.977398        -2.247906
 H        -0.769586        -1.067383         0.427405
 H        -0.666266         0.642913         0.773110
 H        -0.360217         0.139781        -0.971355
 H         1.520197         2.013709        -0.455270
 H         1.797293         1.700766         1.281043
 H         4.462165        -0.793567        -0.137424
 H         2.592053        -0.779116         2.035443
 H         3.067662        -2.835081         0.081663
 H         1.174762        -2.745590         0.233337
 H         1.726102         0.003942        -2.469401
