19
Iteration:   742charge 0 multiplicity 1
 C        -0.110859        -0.049473         0.227870
 C         1.381632         0.003208         0.051142
 C         2.146256         1.292895         0.199302
 O         3.511272         0.858946         0.118251
 C         3.341960        -0.557929        -0.019916
 C         2.184744        -1.024821         0.970674
 C         1.931424        -2.218499        -0.040664
 C         2.131571        -0.855226        -0.864239
 O         1.847065        -0.617097        -2.217287
 H        -0.356733        -0.320539         1.307988
 H        -0.704633         0.837235        -0.218214
 H        -0.478387        -0.998786        -0.173652
 H         2.006351         2.109096        -0.534474
 H         1.884465         1.697715         1.211058
 H         4.421810        -0.849299         0.023220
 H         2.048556        -1.068556         2.060166
 H         2.785735        -2.934052        -0.061227
 H         0.890013        -2.664318         0.067956
 H         1.745195         0.382057        -2.316673
