19
Iteration:   927
 C        -0.144221        -0.014277         0.199498
 C         1.345459        -0.001407         0.288671
 C         2.127100         1.330789         0.357333
 O         3.465610         0.839687         0.172049
 C         3.318921        -0.498738        -0.047910
 C         2.251869        -1.084141         0.961020
 C         1.951618        -2.123811        -0.151959
 C         2.116755        -0.829895        -0.950001
 O         1.897249        -0.749298        -2.300208
 H        -0.758430         0.963271         0.067885
 H        -0.457693        -0.668344        -0.525532
 H        -0.580460        -0.325645         1.155646
 H         1.741871         2.079904        -0.432609
 H         2.122051         1.811457         1.345940
 H         4.176777        -1.091485        -0.196249
 H         2.324663        -1.118507         2.006551
 H         2.847641        -2.755818        -0.261994
 H         1.023668        -2.638820        -0.392168
 H         2.197945         0.094141        -2.517695
