19
Iteration:  4685charge 0 multiplicity 1
 C        -0.158193        -0.272955         0.284949
 C         1.350032        -0.051003         0.171781
 C         1.894294         1.367020         0.153002
 O         3.388497         1.047075         0.051785
 C         3.351853        -0.389412        -0.023381
 C         2.316664        -0.912819         0.964004
 C         1.998306        -2.088318        -0.006196
 C         2.176855        -0.859956        -0.832763
 O         2.024292        -0.922459        -2.265308
 H        -0.292478        -0.774520         1.199636
 H        -0.782359         0.582564         0.462544
 H        -0.553853        -0.902353        -0.477616
 H         1.517664         1.911941        -0.782670
 H         1.783091         2.059703         1.003263
 H         4.420808        -0.630714         0.006426
 H         2.271996        -0.985102         2.106550
 H         2.725448        -2.953525        -0.093058
 H         1.090369        -2.663009         0.107372
 H         2.113924        -0.005394        -2.579988
