19
Iteration:  3002charge 0 multiplicity 1
 C        -0.156628        -0.218733         0.108313
 C         1.345143        -0.088577         0.189782
 C         1.986382         1.311478         0.335876
 O         3.314459         1.040825         0.122910
 C         3.324346        -0.396749        -0.062529
 C         2.371146        -1.100341         0.922651
 C         2.091947        -2.235173        -0.012330
 C         2.164641        -0.843755        -0.861971
 O         1.917078        -0.645061        -2.241164
 H        -0.531088         0.305328         1.000933
 H        -0.601446         0.392546        -0.707211
 H        -0.553595        -1.234758         0.101955
 H         1.423615         2.039700        -0.351006
 H         1.760445         1.722118         1.443946
 H         4.301197        -0.734081        -0.337265
 H         2.366408        -1.039220         1.973674
 H         2.903740        -2.966536        -0.096009
 H         1.186551        -2.801259         0.078144
 H         2.566407        -0.005950        -2.575387
