19
Iteration:  4974charge 0 multiplicity 1
 C        -0.187938        -0.099435         0.397459
 C         1.299316        -0.135120         0.209194
 C         1.888766         1.295502         0.097999
 O         3.192940         1.039610        -0.104658
 C         3.366937        -0.374464        -0.026842
 C         2.252545        -0.989755         1.025734
 C         2.119383        -2.230660         0.035398
 C         2.182723        -0.909912        -0.832703
 O         2.157743        -0.767701        -2.262600
 H        -0.324744        -0.491144         1.432479
 H        -0.542057         0.910214         0.337244
 H        -0.645137        -0.633914        -0.426402
 H         1.485708         1.699425        -0.762831
 H         1.669041         1.978077         0.903367
 H         4.350710        -0.934152         0.002267
 H         2.238707        -0.920117         2.019642
 H         3.103365        -2.707236        -0.132312
 H         1.137980        -2.715888         0.042736
 H         2.903133        -0.066713        -2.345211
