19
Iteration:  3712
 C        -0.207844        -0.121265         0.301914
 C         1.344442        -0.192728         0.229957
 C         1.953330         1.261280         0.364101
 O         3.337903         1.067171         0.180577
 C         3.307559        -0.362316        -0.013175
 C         2.285606        -1.212069         0.919930
 C         2.202678        -2.301229        -0.208554
 C         2.163514        -0.843350        -0.925160
 O         1.947028        -0.517838        -2.340440
 H        -0.633682        -1.142726         0.307703
 H        -0.453843         0.254032         1.161625
 H        -0.532395         0.339501        -0.623687
 H         1.341824         1.969106        -0.333216
 H         1.787191         1.795532         1.327927
 H         4.255679        -0.736232        -0.217833
 H         2.361620        -1.419526         2.044040
 H         3.120257        -2.803537        -0.334420
 H         1.252738        -2.923232        -0.223428
 H         2.401074         0.288449        -2.502998
