19
Iteration:  3713
 C        -0.206203        -0.123786         0.299919
 C         1.340816        -0.196440         0.232478
 C         1.957244         1.269958         0.358664
 O         3.335728         1.058369         0.181530
 C         3.302561        -0.356149        -0.013047
 C         2.283759        -1.213173         0.922139
 C         2.197554        -2.295326        -0.201097
 C         2.166818        -0.844723        -0.929832
 O         1.953410        -0.513239        -2.343413
 H        -0.652255        -1.138370         0.376443
 H        -0.478737         0.266112         1.180029
 H        -0.568680         0.305368        -0.611423
 H         1.347076         1.974987        -0.325543
 H         1.794846         1.783592         1.299344
 H         4.280981        -0.739142        -0.237931
 H         2.375227        -1.459037         2.026927
 H         3.158920        -2.818083        -0.365165
 H         1.253284        -2.921827        -0.209637
 H         2.403285         0.291022        -2.497775
