19
Iteration:  3760
 C        -0.143058        -0.428020         0.496519
 C         1.311845        -0.080450         0.212838
 C         1.930106         1.334970         0.384978
 O         3.343499         1.043411         0.172006
 C         3.318631        -0.389381        -0.050629
 C         2.261771        -1.195890         0.878142
 C         1.896907        -2.102701        -0.287340
 C         2.169816        -0.798108        -0.968746
 O         2.172080        -0.567844        -2.377089
 H        -0.397161        -0.771035         1.504850
 H        -0.634805         0.589449         0.575844
 H        -0.467664        -1.057142        -0.300448
 H         1.688282         2.128021        -0.364249
 H         1.731069         1.902110         1.245120
 H         4.444926        -0.721587        -0.068059
 H         2.239591        -1.513674         1.885182
 H         2.664165        -3.032328        -0.383694
 H         0.861397        -2.339788        -0.286225
 H         2.723260         0.272508        -2.446080
