19
Iteration:  4116
 C        -0.156208        -0.362324         0.522351
 C         1.267258        -0.033410         0.169228
 C         1.888503         1.332509         0.360940
 O         3.315965         1.011622         0.132733
 C         3.344097        -0.442322         0.012331
 C         2.275987        -1.037024         0.900976
 C         1.885019        -2.070880        -0.276369
 C         2.201273        -0.797662        -1.012805
 O         2.227707        -0.687953        -2.379078
 H        -0.724322        -1.064759        -0.085587
 H        -0.177754        -1.067470         1.479526
 H        -0.821152         0.549589         0.836857
 H         1.521044         2.115219        -0.240439
 H         1.826557         1.645190         1.376828
 H         4.502230        -0.671836        -0.088001
 H         2.386505        -1.298467         1.896588
 H         2.792158        -2.792770        -0.354631
 H         0.926338        -2.717014        -0.282762
 H         2.653224         0.209237        -2.650940
