19
Iteration:  1956
 C        -0.235318        -0.198780         0.071936
 C         1.320609        -0.082544         0.166046
 C         1.993426         1.227098         0.472047
 O         3.444588         1.010720         0.126540
 C         3.419316        -0.367983        -0.043367
 C         2.364295        -1.002426         0.965909
 C         2.044000        -2.141008        -0.014081
 C         2.141319        -0.898451        -0.942492
 O         1.868247        -0.599223        -2.275931
 H        -0.823890         0.494666         0.701526
 H        -0.486200         0.217679        -0.897563
 H        -0.696407        -1.179196         0.310134
 H         1.492578         1.938533        -0.131919
 H         2.077636         1.432708         1.508915
 H         4.383991        -0.843739         0.011085
 H         2.590081        -1.056178         1.985884
 H         2.748176        -2.945619        -0.451932
 H         1.025408        -2.538194         0.087767
 H         2.165672        -1.376569        -2.767651
