19
Iteration:  2829
 C        -0.182636        -0.143632         0.174320
 C         1.302672        -0.076238         0.188283
 C         1.989865         1.202000         0.280134
 O         3.371402         1.039028         0.179663
 C         3.349859        -0.334080         0.021223
 C         2.371957        -1.062036         0.991067
 C         2.143750        -2.162767        -0.164865
 C         2.148787        -0.828477        -0.914016
 O         1.849266        -0.686871        -2.229645
 H        -0.624245         0.444211         0.930337
 H        -0.533626         0.252395        -0.831659
 H        -0.613018        -1.135620         0.256078
 H         1.632606         1.876310        -0.525029
 H         1.577311         1.651532         1.379594
 H         4.203450        -0.941864         0.020553
 H         2.584460        -1.292296         2.027749
 H         2.921293        -2.839143        -0.447579
 H         1.194342        -2.600164        -0.187868
 H         2.684637        -1.030749        -2.654006
