19
Iteration:  4531
 C        -0.142236        -0.108873         0.131476
 C         1.323270        -0.069986         0.191148
 C         1.901995         1.268502         0.186780
 O         3.307802         1.086208         0.086682
 C         3.350169        -0.421296         0.018754
 C         2.360320        -1.020518         0.979789
 C         2.241781        -2.226117        -0.031786
 C         2.152103        -0.910826        -0.872856
 O         1.842418        -0.707571        -2.175023
 H        -0.669208         0.810776        -0.483353
 H        -0.424129        -1.176297        -0.099761
 H        -0.531817        -0.010297         1.178459
 H         1.596881         2.002596        -0.657276
 H         1.628163         1.757660         1.152777
 H         4.458732        -0.550819        -0.089392
 H         2.431327        -1.064678         2.026686
 H         3.185946        -2.838469        -0.036395
 H         1.283720        -2.813957         0.119609
 H         2.433332        -1.152682        -2.857961
