19
Iteration:  2650charge 0 multiplicity 1
 C        -0.208552        -0.322072         0.162836
 C         1.346133        -0.066123         0.201845
 C         2.054934         1.280173         0.279349
 O         3.422907         1.035986         0.210549
 C         3.331120        -0.317475        -0.079808
 C         2.303695        -1.107565         0.964614
 C         2.039069        -2.130335        -0.043475
 C         2.125359        -0.866266        -0.902041
 O         1.977224        -0.581090        -2.278426
 H        -0.855657         0.076825         0.998104
 H        -0.464864         0.222317        -0.712018
 H        -0.217988        -1.437680         0.146728
 H         1.676793         1.945055        -0.512649
 H         1.703814         2.003833         1.107165
 H         4.332810        -0.707982        -0.331274
 H         2.404043        -1.233945         2.066970
 H         2.720450        -2.982598        -0.090468
 H         1.000398        -2.309140        -0.077687
 H         1.457545        -1.340124        -2.428180
