19
Iteration:  1446
 C        -0.205992        -0.077106         0.111879
 C         1.336812        -0.092470         0.193363
 C         2.060513         1.291017         0.272211
 O         3.538646         0.967118         0.086703
 C         3.318328        -0.476158        -0.006689
 C         2.302059        -1.114443         1.039044
 C         2.018261        -2.164285        -0.104493
 C         2.146239        -0.868174        -0.841871
 O         1.860466        -0.538940        -2.203321
 H        -0.602102         0.796404         0.682334
 H        -0.647129        -0.050912        -1.036325
 H        -0.714605        -0.883981         0.684654
 H         1.763497         2.002788        -0.520343
 H         2.013263         1.730707         1.326120
 H         4.326906        -0.924854        -0.287432
 H         2.195106        -1.383320         2.110983
 H         2.757388        -3.018214        -0.385318
 H         0.959134        -2.517156         0.114704
 H         1.907223        -1.424984        -2.703754
