19
Iteration:  3835charge 0 multiplicity 1
 C        -0.150662        -0.110095         0.206077
 C         1.351496        -0.236487         0.280270
 C         1.893242         1.172372         0.478665
 O         3.328609         1.030010         0.266626
 C         3.375469        -0.407637         0.017389
 C         2.379984        -1.165388         0.857077
 C         2.180678        -2.150505        -0.320176
 C         2.152037        -0.814265        -0.978296
 O         1.852558        -0.554196        -2.274184
 H        -0.449302         0.930897         0.506591
 H        -0.395972        -0.118550        -0.854091
 H        -0.717625        -0.918529         0.641638
 H         1.483820         2.020241        -0.293490
 H         1.825619         1.502442         1.561054
 H         4.479663        -0.661692        -0.287049
 H         2.482963        -1.390211         1.890305
 H         2.987720        -2.933249        -0.553106
 H         1.301231        -2.736495        -0.402206
 H         1.965077         0.382449        -2.496175
