19
Iteration:  1819
 C        -0.173068        -0.059758         0.256763
 C         1.338481        -0.074133         0.277291
 C         1.943347         1.251593         0.402631
 O         3.353755         0.998305         0.106987
 C         3.291674        -0.369231        -0.079170
 C         2.343931        -1.055695         0.981629
 C         1.960440        -2.193608        -0.139025
 C         2.126016        -0.825145        -0.909949
 O         2.160481        -0.724627        -2.346674
 H        -0.558143         0.348072         1.243856
 H        -0.341702         0.745728        -0.522187
 H        -0.691141        -1.031062         0.045300
 H         1.558975         1.823230        -0.413701
 H         1.904635         1.682864         1.373942
 H         4.262222        -0.754965        -0.320702
 H         2.451255        -1.204379         2.064708
 H         2.788588        -2.869482        -0.243839
 H         0.986214        -2.665761        -0.036972
 H         1.502967        -1.388285        -2.761302
