19
Iteration:  3820
 C        -0.212647        -0.050246         0.294796
 C         1.309844        -0.098449         0.220565
 C         1.918284         1.249797         0.527354
 O         3.272121         0.983061         0.235237
 C         3.347412        -0.375006        -0.023413
 C         2.416171        -1.230240         0.922725
 C         2.216484        -2.257165        -0.330927
 C         2.181159        -0.829420        -0.965604
 O         1.929077        -0.567930        -2.406747
 H        -0.636412         0.706688         1.003478
 H        -0.670927        -0.039877        -0.793159
 H        -0.740559        -0.984995         0.733077
 H         1.538941         1.938096        -0.126347
 H         1.667939         1.558470         1.575313
 H         4.322762        -0.766505         0.001246
 H         2.675562        -1.449798         2.017953
 H         3.067650        -2.790909        -0.602297
 H         1.260263        -2.904479        -0.306579
 H         2.225998         0.328735        -2.431867
