19
Iteration:  2659charge 0 multiplicity 1
 C        -0.266830        -0.267347         0.228398
 C         1.263231        -0.081517         0.256155
 C         2.000802         1.324748         0.209459
 O         3.433291         1.013646         0.234059
 C         3.358816        -0.366352        -0.063028
 C         2.373547        -1.034394         0.969004
 C         2.063488        -2.149729        -0.133915
 C         2.166333        -0.849488        -0.928064
 O         2.010291        -0.616295        -2.246512
 H        -0.984344         0.102526         1.059869
 H        -0.695461         0.229132        -0.663501
 H        -0.608841        -1.256725         0.039324
 H         1.827719         1.897945        -0.761464
 H         1.817801         1.846374         1.220306
 H         4.333830        -0.770978        -0.167203
 H         2.387641        -1.244848         2.051268
 H         2.837199        -2.902499        -0.267579
 H         1.167712        -2.799772        -0.095483
 H         1.370108        -1.209316        -2.588652
