19
Iteration:  4037charge 0 multiplicity 1
 C        -0.140439        -0.168856         0.139464
 C         1.340675        -0.154316         0.241656
 C         1.908285         1.227740         0.372361
 O         3.340900         1.017854         0.281667
 C         3.409039        -0.404091        -0.067842
 C         2.332283        -1.129881         0.892050
 C         2.221762        -2.185000        -0.233850
 C         2.226520        -0.816101        -0.922406
 O         1.761230        -0.567477        -2.215682
 H        -0.615909        -1.066237         0.570462
 H        -0.782238         0.632818         0.608395
 H        -0.370744        -0.425306        -0.920639
 H         1.664970         1.979283        -0.272040
 H         1.676149         1.586156         1.348973
 H         4.434025        -0.714588        -0.064326
 H         2.491199        -1.269855         2.017553
 H         3.102205        -2.836947        -0.439845
 H         1.142454        -2.725157        -0.372003
 H         2.094831         0.349745        -2.505591
