19
Iteration:   588
 C        -0.127446         0.096821         0.290540
 C         1.383549         0.001816         0.143098
 C         2.100335         1.266560         0.188559
 O         3.461544         0.836554         0.155285
 C         3.353340        -0.590142        -0.066525
 C         2.221066        -1.019687         0.961253
 C         1.906644        -2.196376        -0.059430
 C         2.105008        -0.894503        -0.882935
 O         1.891450        -0.670454        -2.238812
 H        -0.320935         0.323192         1.375625
 H        -0.576094         0.741448        -0.439046
 H        -0.591842        -0.892131         0.019051
 H         1.943354         2.028066        -0.644130
 H         1.995762         1.937900         1.149040
 H         4.377980        -0.984712        -0.223930
 H         2.233698        -1.030937         2.093767
 H         2.659866        -3.002403        -0.174784
 H         0.817948        -2.455438        -0.021608
 H         2.552842        -0.157815        -2.614495
