19
Iteration:  1496charge 0 multiplicity 1
 C        -0.244311        -0.089776         0.482267
 C         1.341289        -0.074266         0.099775
 C         2.027093         1.292985         0.206534
 O         3.436449         0.936058         0.165283
 C         3.361053        -0.461526         0.002800
 C         2.220611        -1.084359         0.895034
 C         1.873190        -2.157389        -0.071206
 C         2.119432        -0.831236        -0.922106
 O         2.215866        -0.632585        -2.394234
 H        -0.532270         0.931075         0.950837
 H        -0.877096        -0.445516        -0.269380
 H        -0.452589        -0.835265         1.258560
 H         1.881369         1.861710        -0.718991
 H         1.800652         1.655551         1.189918
 H         4.339476        -0.772963        -0.097418
 H         2.246089        -1.118574         1.970281
 H         2.636845        -2.876014        -0.038789
 H         0.867572        -2.452043        -0.185007
 H         1.340497        -0.786560        -2.644636
