19
Iteration:   182
 C        -0.141745         0.026348         0.180953
 C         1.423207         0.042619         0.287997
 C         2.148835         1.366197         0.144747
 O         3.517493         0.788723         0.119356
 C         3.417387        -0.622520         0.035229
 C         2.295876        -1.101093         1.016078
 C         1.742849        -2.119266        -0.113999
 C         2.090623        -0.850302        -0.827661
 O         1.837108        -0.607980        -2.239527
 H        -0.699349         0.241541         1.084431
 H        -0.410439         0.780860        -0.512710
 H        -0.524270        -0.970832        -0.201789
 H         1.878382         1.860080        -0.834396
 H         2.146933         2.150572         0.895992
 H         4.372128        -1.057497        -0.255197
 H         2.294399        -1.337684         2.145365
 H         2.471469        -2.971144        -0.132164
 H         0.633903        -2.294607         0.014474
 H         2.492397        -1.049960        -2.875745
