19
Iteration:  1558
 C        -0.218980        -0.039678         0.243735
 C         1.338934        -0.079483         0.241465
 C         1.969559         1.286591         0.343724
 O         3.393400         0.960554         0.105287
 C         3.363116        -0.415633        -0.016835
 C         2.419795        -1.060775         0.945640
 C         1.922758        -2.148015        -0.142733
 C         2.147723        -0.857663        -0.934802
 O         1.977487        -0.789328        -2.273571
 H        -0.567109         0.632579         1.001440
 H        -0.439693         0.546997        -0.720971
 H        -0.757921        -1.022730         0.418958
 H         1.642408         2.068288        -0.341878
 H         1.879820         1.710748         1.389949
 H         4.424223        -0.822849        -0.148651
 H         2.546819        -1.191408         2.006650
 H         2.572617        -3.091874        -0.230382
 H         0.867918        -2.497741        -0.292832
 H         2.634623        -0.154703        -2.476132
