19
Iteration:  2537charge 0 multiplicity 1
 C        -0.201469        -0.315163         0.349393
 C         1.361544        -0.066876         0.127582
 C         2.028802         1.367211         0.230805
 O         3.396046         1.028986         0.192354
 C         3.312189        -0.370781        -0.019943
 C         2.250745        -0.988396         0.918243
 C         1.962983        -2.179600        -0.156602
 C         2.173507        -0.862818        -0.911125
 O         2.023372        -0.668097        -2.287152
 H        -0.438266        -0.199842         1.411590
 H        -0.964097         0.286491        -0.088459
 H        -0.400548        -1.322133         0.171513
 H         1.630364         1.894968        -0.617493
 H         1.717981         1.943281         1.099666
 H         4.287545        -0.846534         0.089117
 H         2.372298        -1.039579         2.008103
 H         2.709545        -2.903239        -0.096601
 H         0.969357        -2.555786         0.039142
 H         2.799825        -0.878275        -2.886688
