19
Iteration:  1012charge 0 multiplicity 1
 C        -0.273420         0.013873         0.452911
 C         1.293682        -0.027231         0.221428
 C         2.108356         1.320755         0.220370
 O         3.480568         0.871032         0.085234
 C         3.274293        -0.593307         0.018511
 C         2.240055        -1.141248         0.935333
 C         1.895600        -2.176538        -0.230395
 C         2.115331        -0.858479        -0.942091
 O         2.120985        -0.586811        -2.264314
 H        -0.833288        -0.201002        -0.481154
 H        -0.474117        -0.698198         1.154739
 H        -0.567938         0.996365         0.978897
 H         1.914363         1.950232        -0.623115
 H         2.070302         1.886785         1.182491
 H         4.097668        -1.235392        -0.287476
 H         2.259396        -1.328789         2.011321
 H         2.671786        -2.900862        -0.375806
 H         0.907010        -2.658707        -0.214528
 H         2.540873         0.331117        -2.518678
