19
Iteration:  4362charge 0 multiplicity 1
 C        -0.144560        -0.364129         0.125043
 C         1.354020        -0.049856         0.254614
 C         1.973906         1.330308         0.369583
 O         3.370233         1.043526         0.176800
 C         3.334808        -0.386257        -0.064741
 C         2.357096        -0.995517         0.974655
 C         2.092260        -2.073669        -0.093064
 C         2.163785        -0.865423        -0.929323
 O         1.858465        -0.738537        -2.260115
 H        -0.499099        -0.960109         0.888945
 H        -0.665153         0.621814         0.034553
 H        -0.608412        -0.722170        -0.783008
 H         1.683156         2.027062        -0.432506
 H         1.783335         1.828884         1.333561
 H         4.321702        -0.780393        -0.281755
 H         2.422777        -1.121026         2.161964
 H         2.845664        -2.907240        -0.351465
 H         1.100644        -2.647468         0.064595
 H         2.430974        -0.214209        -2.859998
