19
Iteration:  4056
 C        -0.200957        -0.149765         0.193433
 C         1.305699        -0.175140         0.187535
 C         1.934072         1.248098         0.444653
 O         3.362227         1.046331         0.209972
 C         3.334393        -0.359978         0.033181
 C         2.374959        -1.168088         0.918298
 C         2.238598        -2.219782        -0.257858
 C         2.101511        -0.827850        -0.926332
 O         1.873642        -0.603223        -2.293732
 H        -0.675989        -1.152174         0.379732
 H        -0.371689         0.577132         1.020723
 H        -0.650182         0.261031        -0.743319
 H         1.513945         1.902105        -0.374465
 H         1.744741         1.778541         1.449096
 H         4.317430        -0.633603        -0.237148
 H         2.484067        -1.486430         2.022799
 H         3.189830        -2.690216        -0.442504
 H         1.358434        -2.901320        -0.181769
 H         2.304026         0.232392        -2.588586
