19
Iteration:  2488charge 0 multiplicity 1
 C        -0.209330        -0.113165         0.202447
 C         1.334627        -0.127436         0.192883
 C         1.873616         1.325309         0.261795
 O         3.349650         1.048059         0.048814
 C         3.382465        -0.417038        -0.015060
 C         2.353926        -1.132842         0.917134
 C         2.058744        -2.254833        -0.024984
 C         2.241594        -0.914384        -0.789492
 O         1.947349        -0.638619        -2.219577
 H        -0.700186         0.042090         1.154745
 H        -0.403775         0.873977        -0.331507
 H        -0.770881        -0.935244        -0.365043
 H         1.330101         1.956714        -0.534393
 H         1.804502         1.877261         1.236494
 H         4.446686        -0.740864        -0.145555
 H         2.533241        -1.250645         1.978751
 H         2.976537        -2.956609        -0.154984
 H         1.056895        -2.570182        -0.288767
 H         2.598350        -0.090497        -2.673170
