19
Iteration:  2943
 C        -0.210259        -0.133920         0.377871
 C         1.313711        -0.028502         0.122633
 C         1.927885         1.307787         0.256210
 O         3.321368         1.040062         0.263736
 C         3.299615        -0.410686        -0.034860
 C         2.348963        -1.027249         0.870973
 C         2.082515        -2.177250        -0.185514
 C         2.124676        -0.886950        -0.942433
 O         2.097719        -0.815109        -2.305280
 H        -0.284847         0.004548         1.459105
 H        -0.727670         0.595237        -0.194573
 H        -0.628136        -1.121010         0.112168
 H         1.671766         2.121601        -0.456521
 H         1.627013         1.595648         1.435931
 H         4.326481        -0.805912        -0.272097
 H         2.474914        -1.213578         1.984663
 H         3.055632        -2.751664        -0.304226
 H         1.089146        -2.692677        -0.051817
 H         2.099203         0.094117        -2.552566
