19
Iteration:  2452charge 0 multiplicity 1
 C        -0.206281        -0.174830         0.264475
 C         1.322984        -0.065928         0.237579
 C         1.937732         1.355354         0.350486
 O         3.402991         1.009217         0.159667
 C         3.343078        -0.404704        -0.043010
 C         2.287397        -1.029327         0.931712
 C         2.091259        -2.187981        -0.097202
 C         2.153972        -0.815777        -0.976829
 O         2.003085        -0.817153        -2.315700
 H        -0.745815         0.426184         1.148546
 H        -0.498815         0.336870        -0.632560
 H        -0.633120        -1.142572         0.117240
 H         1.576826         2.101979        -0.413259
 H         1.756201         1.793311         1.405779
 H         4.209096        -0.934837        -0.220651
 H         2.406290        -1.081542         2.019067
 H         2.982562        -2.831880        -0.078681
 H         1.230995        -2.839671        -0.169482
 H         2.113024         0.120407        -2.609612
