19
Iteration:  1181charge 0 multiplicity 1
 C        -0.142891        -0.093330         0.473128
 C         1.276284        -0.022259         0.127446
 C         2.119710         1.299356         0.211249
 O         3.468807         0.870597        -0.005352
 C         3.335370        -0.602442         0.000342
 C         2.175894        -1.052457         0.961807
 C         1.810011        -2.124792        -0.042189
 C         2.115921        -0.861781        -0.930334
 O         2.186212        -0.591275        -2.298796
 H        -0.540610         0.942745         0.466455
 H        -0.711738        -0.714236        -0.364081
 H        -0.244562        -0.537382         1.430612
 H         1.986818         2.186201        -0.503901
 H         1.829629         1.668532         1.235066
 H         4.306996        -1.119665        -0.059551
 H         1.847114        -1.157158         2.014425
 H         2.535942        -3.009883        -0.103887
 H         0.744248        -2.306923        -0.300971
 H         1.549783         0.213827        -2.496272
