19
Iteration:   711
 C        -0.149202        -0.008608         0.108357
 C         1.361597        -0.024507         0.288031
 C         2.129824         1.333844         0.349103
 O         3.571353         0.925358         0.163991
 C         3.335449        -0.495366        -0.053655
 C         2.342767        -1.150986         1.003963
 C         1.910861        -2.125964        -0.085666
 C         2.055751        -0.797246        -0.875586
 O         1.843921        -0.767795        -2.322667
 H        -0.653164         0.617049         0.827388
 H        -0.439522         0.469808        -0.907845
 H        -0.419515        -0.990623         0.025104
 H         1.850056         1.990013        -0.498471
 H         1.905383         1.835074         1.385783
 H         4.348087        -0.898144        -0.230095
 H         2.396660        -1.399710         2.030392
 H         2.544114        -3.011037        -0.344846
 H         0.909394        -2.572617         0.121309
 H         1.131613        -0.191649        -2.602746
