19
Iteration:   409
 C        -0.188255         0.063688         0.237049
 C         1.329171         0.109124         0.191228
 C         2.264646         1.365068         0.381306
 O         3.557448         0.822106         0.058713
 C         3.319863        -0.554457         0.015869
 C         2.155841        -1.051829         0.948501
 C         1.863217        -2.163162        -0.139079
 C         2.046070        -0.853167        -0.910243
 O         1.902549        -0.842519        -2.263058
 H        -0.702270         0.568410         1.049836
 H        -0.633274         0.527630        -0.673801
 H        -0.397380        -1.027986         0.278797
 H         2.129722         2.241392        -0.360850
 H         2.335346         1.869574         1.436566
 H         4.368263        -0.994200        -0.046443
 H         2.242523        -1.147337         2.077094
 H         2.662230        -2.874010        -0.213916
 H         0.881681        -2.602711        -0.291567
 H         2.317809        -0.081256        -2.606679
