19
Iteration:   994charge 0 multiplicity 1
 C        -0.274328         0.024346         0.625022
 C         1.246233         0.029526         0.154623
 C         2.114793         1.310629         0.303808
 O         3.519258         0.839126         0.092683
 C         3.284128        -0.527182         0.003675
 C         2.089797        -1.102825         0.892902
 C         1.956244        -2.179720        -0.252415
 C         2.041024        -0.829568        -0.959767
 O         2.209682        -0.727732        -2.399250
 H        -1.049881         0.072673        -0.245499
 H        -0.588927        -0.896160         1.200985
 H        -0.471410         0.942285         1.185320
 H         1.860149         2.119199        -0.483060
 H         2.093846         1.691482         1.342479
 H         4.350770        -0.802339         0.057780
 H         2.157983        -1.269337         1.954409
 H         2.902379        -2.778295        -0.409948
 H         0.964974        -2.631011        -0.336961
 H         2.679770         0.203538        -2.508846
