19
Iteration:  3870charge 0 multiplicity 1
 C        -0.138178        -0.434478         0.112749
 C         1.310476        -0.085969         0.314423
 C         2.032779         1.328950         0.453666
 O         3.412210         0.975361         0.310342
 C         3.380049        -0.451757         0.020987
 C         2.391389        -1.087935         0.870260
 C         2.025899        -2.146785        -0.335909
 C         2.147348        -0.765640        -0.957638
 O         1.821255        -0.503163        -2.294686
 H        -0.831577         0.332017         0.428933
 H        -0.292354        -0.602422        -0.933512
 H        -0.589740        -1.178520         0.709965
 H         1.633622         2.252089        -0.257700
 H         1.816544         1.676376         1.470349
 H         4.335298        -0.849735        -0.336418
 H         2.559206        -1.365239         1.891332
 H         2.892265        -2.887558        -0.432469
 H         1.045509        -2.529276        -0.097152
 H         1.951327         0.472009        -2.353988
