19
Iteration:   163
 C        -0.157604         0.090475         0.348039
 C         1.347716        -0.037377         0.188732
 C         2.223311         1.262207         0.163615
 O         3.612436         0.870518        -0.008546
 C         3.289628        -0.545115         0.056513
 C         2.101377        -1.084101         0.993509
 C         1.823248        -2.206928        -0.063527
 C         2.061051        -0.878866        -0.879785
 O         1.960303        -0.576530        -2.241928
 H        -0.489925         0.058809         1.397380
 H        -0.577667         0.948324        -0.130869
 H        -0.609244        -0.836308        -0.140715
 H         1.858390         1.893492        -0.782215
 H         2.094152         2.028187         0.988726
 H         4.130196        -1.124378         0.195981
 H         2.162691        -1.265271         2.026996
 H         2.616597        -2.914822        -0.303230
 H         0.781921        -2.514972        -0.099559
 H         2.661317        -1.030947        -2.753882
