19
Iteration:  4737
 C        -0.180653        -0.132288         0.121071
 C         1.330196        -0.108503         0.120161
 C         1.937327         1.303614         0.217913
 O         3.323640         1.121379         0.047164
 C         3.346191        -0.375969        -0.031952
 C         2.358950        -0.907286         1.020656
 C         2.163579        -2.161841         0.077245
 C         2.191333        -0.909876        -0.826343
 O         1.905676        -0.975359        -2.242058
 H        -0.744414        -1.042009         0.406236
 H        -0.649228         0.635473         0.778730
 H        -0.338045         0.166759        -0.955240
 H         1.518711         2.014394        -0.443425
 H         1.772955         1.663111         1.281430
 H         4.461842        -0.764876        -0.139354
 H         2.576289        -0.787407         2.065732
 H         3.118535        -2.836714         0.064091
 H         1.156989        -2.726112         0.228589
 H         1.746153        -0.013409        -2.479368
