19
Iteration:  2579
 C        -0.209480        -0.040346         0.348793
 C         1.247747        -0.085062         0.254953
 C         1.932289         1.263051         0.309237
 O         3.284578         1.008660         0.162986
 C         3.296120        -0.379950        -0.004324
 C         2.339231        -1.075259         0.925999
 C         2.171486        -2.184921        -0.166285
 C         2.184915        -0.898945        -0.987998
 O         2.059104        -0.683110        -2.310044
 H        -0.644246         0.596762         1.133736
 H        -0.598143         0.443750        -0.605288
 H        -0.587731        -1.078109         0.515718
 H         1.594516         1.993401        -0.514662
 H         1.770211         1.798446         1.251966
 H         4.348219        -0.786696        -0.215601
 H         2.472418        -1.190952         2.010604
 H         3.015209        -2.886275        -0.374704
 H         1.177051        -2.731935        -0.184367
 H         2.456799        -1.396703        -2.750344
