19
Iteration:  2096charge 0 multiplicity 1
 C        -0.101118        -0.211034         0.238341
 C         1.350733        -0.039250         0.138004
 C         1.985501         1.336219         0.376712
 O         3.386073         1.037306         0.181994
 C         3.286794        -0.398532        -0.053626
 C         2.292464        -1.043711         0.890026
 C         2.045113        -2.197153        -0.034521
 C         2.051216        -0.867595        -0.944908
 O         2.065100        -0.673167        -2.320424
 H        -0.280057        -0.173135         1.286553
 H        -0.703613         0.626302        -0.276444
 H        -0.403566        -1.277365        -0.126112
 H         1.533585         2.150954        -0.321791
 H         1.887876         1.617911         1.511940
 H         4.227292        -0.749115        -0.356879
 H         2.273155        -1.025994         1.988000
 H         2.885020        -2.860759        -0.110603
 H         1.148758        -2.711900         0.166007
 H         1.344547        -1.213904        -2.792290
