19
Iteration:  2167
 C        -0.196897        -0.185718         0.270873
 C         1.325821        -0.142781         0.137011
 C         1.955299         1.282502         0.298486
 O         3.360386         0.950169         0.211387
 C         3.355710        -0.433293        -0.020511
 C         2.356621        -0.999899         0.898880
 C         2.076965        -2.145528        -0.092289
 C         2.184570        -0.877495        -0.923029
 O         1.898912        -0.556981        -2.250692
 H        -0.552850         0.811823         0.798938
 H        -0.568107        -0.090853        -0.745087
 H        -0.638330        -1.073468         0.654347
 H         1.956976         1.912035        -0.667391
 H         1.736488         1.988958         1.110791
 H         4.409594        -0.854904        -0.247104
 H         2.527416        -1.201910         2.017710
 H         2.838331        -2.959193        -0.205726
 H         1.010812        -2.582342         0.047111
 H         2.482106        -1.061173        -2.884788
