19
Iteration:  1701charge 0 multiplicity 1
 C        -0.206276        -0.005905         0.441523
 C         1.325052        -0.018944         0.222590
 C         1.994804         1.324805         0.383883
 O         3.305159         1.021021         0.024074
 C         3.259565        -0.496671        -0.009063
 C         2.219415        -1.051778         0.961478
 C         1.986361        -2.209661        -0.172447
 C         2.197254        -0.896653        -0.998579
 O         2.231910        -0.783280        -2.348122
 H        -0.389178         0.520674         1.223270
 H        -0.420104         0.515983        -0.474288
 H        -0.601168        -1.022077         0.552002
 H         1.566518         1.966796        -0.298844
 H         1.923593         1.562411         1.434806
 H         4.257080        -0.848399        -0.023225
 H         2.269421        -1.325938         2.026383
 H         2.879856        -2.871842        -0.391186
 H         1.006733        -2.763808        -0.050110
 H         1.659844        -0.133878        -2.697939
