19
Iteration:  4227charge 0 multiplicity 1
 C        -0.184680        -0.365494         0.119343
 C         1.336102        -0.061913         0.184778
 C         1.973037         1.311240         0.470869
 O         3.436693         1.052043         0.221410
 C         3.398063        -0.369500        -0.085205
 C         2.319428        -1.032721         0.941517
 C         2.046576        -2.072858        -0.124193
 C         2.138137        -0.777327        -0.953388
 O         1.871321        -0.752655        -2.276633
 H        -0.891405         0.447656         0.119687
 H        -0.205706        -1.036372        -0.750464
 H        -0.446368        -0.919752         1.050141
 H         1.575094         2.019450        -0.191729
 H         1.924609         1.722329         1.462789
 H         4.413564        -0.853190        -0.269723
 H         2.419235        -1.158041         2.011141
 H         2.814239        -2.948490        -0.356169
 H         1.080054        -2.584886        -0.163453
 H         2.120312         0.096701        -2.593669
