19
Iteration:  3439
 C        -0.160711        -0.306387         0.380804
 C         1.334511        -0.073384         0.206600
 C         1.946852         1.295949         0.247890
 O         3.335233         1.011671         0.135581
 C         3.321026        -0.379436         0.027595
 C         2.302833        -0.981628         0.913764
 C         1.998097        -2.117273        -0.109779
 C         2.098917        -0.830907        -0.947774
 O         2.132548        -0.756323        -2.370283
 H        -0.390270        -0.757446         1.389333
 H        -0.629130         0.690327         0.472729
 H        -0.442329        -0.865379        -0.514473
 H         1.641420         2.066182        -0.525324
 H         1.745618         1.833524         1.328158
 H         4.272710        -0.836819        -0.215300
 H         2.319358        -1.128298         1.999921
 H         2.731624        -2.855931        -0.252632
 H         0.959787        -2.496342         0.178996
 H         2.264923         0.126529        -2.664584
