19
Iteration:  1364charge 0 multiplicity 1
 C        -0.124249         0.021667         0.441095
 C         1.311781        -0.040787         0.173638
 C         2.073092         1.282159         0.230888
 O         3.409854         0.931964         0.106702
 C         3.267344        -0.505300         0.001658
 C         2.225205        -1.067289         0.969427
 C         1.881597        -2.137244        -0.104976
 C         2.105248        -0.861516        -0.923810
 O         2.151565        -0.795166        -2.386887
 H        -0.341742        -0.075942         1.613028
 H        -0.509240         1.014694         0.335478
 H        -0.796202        -0.618571        -0.254930
 H         1.658727         1.828769        -0.705873
 H         1.869387         1.917978         1.154986
 H         4.330995        -0.871780        -0.100360
 H         2.417610        -1.224424         2.050562
 H         2.752257        -2.782535        -0.181373
 H         0.940169        -2.640197        -0.282300
 H         1.874965         0.100168        -2.530477
