19
Iteration:   389charge 0 multiplicity 1
 C        -0.167476         0.119078         0.168565
 C         1.405157         0.014293         0.224982
 C         2.178261         1.284881         0.423563
 O         3.600077         0.866416         0.089807
 C         3.325171        -0.546853        -0.021637
 C         2.169931        -1.029375         1.002131
 C         1.838368        -2.037972        -0.093421
 C         2.147297        -0.808680        -0.961588
 O         1.901265        -0.929696        -2.315752
 H        -0.684941         0.493028         1.075301
 H        -0.410499         0.864301        -0.521037
 H        -0.649896        -0.913832        -0.069865
 H         1.831975         2.123356        -0.187023
 H         2.156430         1.596496         1.518317
 H         4.123241        -1.230305        -0.111705
 H         2.239384        -1.235806         2.080703
 H         2.602057        -2.833557        -0.309466
 H         0.822358        -2.420222        -0.054498
 H         1.253289        -0.238078        -2.642874
