19
Iteration:   621
 C        -0.158417        -0.030347         0.447088
 C         1.370481        -0.024039         0.275927
 C         2.079917         1.303118         0.089795
 O         3.477151         0.915532         0.081039
 C         3.368694        -0.579187        -0.007926
 C         2.292587        -1.117193         1.008500
 C         1.724425        -2.122255        -0.160970
 C         2.066300        -0.814352        -0.886588
 O         2.082650        -0.592919        -2.309154
 H        -0.503268         0.731918         1.218417
 H        -0.774704         0.276779        -0.389141
 H        -0.449734        -1.050997         0.807902
 H         1.999058         1.763619        -0.935439
 H         1.935877         2.084254         0.968794
 H         4.368242        -1.092121        -0.172525
 H         2.103053        -1.269396         2.129598
 H         2.177866        -3.097455        -0.431876
 H         0.614072        -2.420564        -0.066154
 H         2.704847        -1.322401        -2.594110
