19
Iteration:  1267charge 0 multiplicity 1
 C        -0.129490         0.030987         0.142410
 C         1.386275        -0.009006         0.097775
 C         2.074371         1.233941         0.391639
 O         3.539327         0.939748         0.218886
 C         3.413068        -0.446764         0.057008
 C         2.287260        -1.037321         0.925891
 C         1.952590        -2.164763        -0.057813
 C         2.106052        -0.878230        -0.973146
 O         1.729805        -0.690785        -2.298905
 H        -0.529428         0.844535         0.829664
 H        -0.671787         0.193127        -0.766909
 H        -0.531157        -0.962097         0.340641
 H         2.070215         1.923732        -0.397058
 H         1.916121         1.618810         1.423503
 H         4.373933        -0.983030        -0.156337
 H         2.400589        -1.133956         2.028143
 H         2.857692        -2.830788        -0.158572
 H         0.959715        -2.693777        -0.060407
 H         1.818689        -1.551551        -2.728529
