19
Iteration:  1062charge 0 multiplicity 1
 C        -0.184545        -0.080273        -0.012911
 C         1.351730        -0.030881         0.210498
 C         2.187570         1.342471         0.401357
 O         3.525314         0.850822         0.182686
 C         3.448131        -0.498000        -0.031584
 C         2.307703        -1.121823         0.928155
 C         1.880925        -2.177813        -0.101378
 C         2.080294        -0.813838        -0.859011
 O         1.714561        -0.562934        -2.181226
 H        -0.374097        -0.368990        -1.030221
 H        -0.711428        -0.905636         0.697865
 H        -0.568172         0.903368         0.176084
 H         2.126235         2.153498        -0.415598
 H         2.143465         1.719027         1.427407
 H         4.338498        -1.133497        -0.031214
 H         2.479972        -1.342153         2.017202
 H         2.603489        -2.969370        -0.436058
 H         0.811638        -2.452350        -0.026797
 H         2.497676        -0.497886        -2.738278
