19
Iteration:  4474charge 0 multiplicity 1
 C        -0.117052        -0.321618         0.468310
 C         1.278086        -0.023928         0.153485
 C         1.888764         1.415246         0.209285
 O         3.350499         1.024513         0.030060
 C         3.283457        -0.370241         0.002612
 C         2.291145        -1.039417         0.954829
 C         1.979143        -2.149665        -0.078446
 C         2.152505        -0.835964        -0.941679
 O         2.167316        -0.788646        -2.302268
 H        -0.716824        -0.810164        -0.427490
 H        -0.212999        -1.019093         1.329563
 H        -0.554134         0.636042         0.799633
 H         1.610428         2.092753        -0.661388
 H         1.675079         1.922678         1.204314
 H         4.410253        -0.721431        -0.182599
 H         2.141789        -0.965113         1.995802
 H         2.605183        -3.077243        -0.142000
 H         0.887007        -2.577333        -0.132637
 H         2.852270        -0.199624        -2.578435
