19
Iteration:  4997charge 0 multiplicity 1
 C        -0.353465        -0.094120         0.457331
 C         1.250200        -0.121253         0.232813
 C         1.867461         1.341321         0.113767
 O         3.298045         1.069311        -0.106092
 C         3.290837        -0.362492         0.030414
 C         2.322468        -1.030758         1.043476
 C         2.154583        -2.194219        -0.025931
 C         2.210233        -0.939840        -0.934506
 O         2.210497        -0.822269        -2.278337
 H        -0.436569        -0.147976         1.525682
 H        -0.686824         0.887229         0.107555
 H        -0.858317        -0.890405        -0.155337
 H         1.412918         1.854604        -0.670625
 H         1.680525         1.979131         0.981467
 H         4.323435        -0.929259        -0.176209
 H         2.482511        -1.112723         2.061948
 H         3.040381        -2.836005        -0.096640
 H         1.101273        -2.506327         0.085245
 H         2.949529        -0.291214        -2.452128
