19
Iteration:  2039charge 0 multiplicity 1
 C        -0.111782        -0.150735         0.506609
 C         1.341652        -0.093430         0.115031
 C         1.926677         1.298471         0.142360
 O         3.306097         1.041949         0.113835
 C         3.232598        -0.442515         0.058470
 C         2.257205        -1.091992         0.927679
 C         2.024554        -2.289038        -0.113399
 C         2.134622        -0.952788        -0.940997
 O         2.242940        -0.548474        -2.316901
 H        -0.226043         0.007290         1.574553
 H        -0.667322         0.743300        -0.049971
 H        -0.654964        -1.122007         0.180800
 H         1.499706         1.924605        -0.770135
 H         1.732398         2.003609         1.090501
 H         4.248803        -0.703155        -0.346684
 H         2.333539        -1.033606         2.138448
 H         2.866783        -2.938161        -0.154538
 H         1.056578        -2.862419        -0.133635
 H         1.423366        -0.103041        -2.556476
