19
Iteration:   490charge 0 multiplicity 1
 C        -0.200129         0.045634         0.397961
 C         1.327177         0.060677         0.238350
 C         2.207945         1.287697         0.145916
 O         3.521227         0.826491         0.119183
 C         3.283704        -0.569933        -0.010213
 C         2.082238        -0.997085         0.971287
 C         1.931866        -2.140119        -0.128549
 C         2.100302        -0.870480        -0.955191
 O         2.078390        -0.694733        -2.281564
 H        -0.482131         0.515628         1.374832
 H        -0.663266         0.559879        -0.427413
 H        -0.631036        -0.997281         0.499112
 H         2.057926         1.898308        -0.744147
 H         2.201317         1.954633         1.065100
 H         4.147438        -1.227596        -0.068204
 H         2.230675        -1.171410         2.037817
 H         2.689915        -2.973352        -0.267263
 H         0.922186        -2.635773        -0.173610
 H         1.199937        -0.680795        -2.537909
