19
Iteration:  1707
 C        -0.199570        -0.022483         0.392249
 C         1.329695        -0.047195         0.225162
 C         1.991434         1.322131         0.346517
 O         3.294205         1.023552         0.055681
 C         3.318940        -0.505327        -0.047070
 C         2.286510        -1.111871         0.976232
 C         1.967734        -2.168290        -0.139172
 C         2.162027        -0.883394        -0.958583
 O         2.217082        -0.772025        -2.350639
 H        -0.448652         0.712475         1.362711
 H        -0.646207         0.352995        -0.592153
 H        -0.656172        -1.008223         0.534710
 H         1.488710         2.073550        -0.411349
 H         1.883647         1.571570         1.448754
 H         4.369147        -0.916411         0.064210
 H         2.285905        -1.181300         2.070280
 H         2.691407        -2.930376        -0.408171
 H         0.950181        -2.533590        -0.180158
 H         1.683509        -0.025298        -2.643957
