19
Iteration:   363
 C        -0.118173         0.223511         0.155617
 C         1.437716         0.044491         0.123491
 C         2.092209         1.357049         0.319746
 O         3.490650         0.863378         0.240211
 C         3.377556        -0.548200        -0.077252
 C         2.367889        -1.059136         0.885976
 C         1.738814        -2.282171         0.000060
 C         2.064793        -0.957672        -0.919558
 O         1.972079        -0.768628        -2.282437
 H        -0.451606         0.418573         1.169764
 H        -0.443501         1.265565        -0.285549
 H        -0.672736        -0.573097        -0.175160
 H         1.857208         2.246705        -0.451101
 H         1.884349         1.777728         1.400190
 H         4.370426        -1.174953        -0.357476
 H         2.421181        -1.093418         2.014879
 H         2.362100        -3.083453        -0.277815
 H         0.758872        -2.580417         0.408688
 H         1.046279        -0.914584        -2.551996
