19
Iteration:  2554charge 0 multiplicity 1
 C        -0.134433        -0.199246         0.418030
 C         1.277707        -0.073762         0.137335
 C         1.886133         1.291351         0.235593
 O         3.374286         1.069348         0.200978
 C         3.415325        -0.365172         0.019910
 C         2.259081        -1.070924         0.928441
 C         1.997570        -2.156265        -0.099407
 C         2.184545        -0.875828        -0.994415
 O         2.036661        -0.680247        -2.336004
 H        -0.483361         0.174848         1.388429
 H        -0.624055         0.511756        -0.373774
 H        -0.530169        -1.319815         0.386898
 H         1.725505         2.032628        -0.624561
 H         1.649281         1.722564         1.230779
 H         4.480819        -0.756911        -0.228340
 H         2.219859        -1.199419         2.037862
 H         2.734412        -3.038102        -0.322622
 H         0.949669        -2.541628        -0.285474
 H         2.724793        -1.256103        -2.717386
