19
Iteration:  4420
 C        -0.156994        -0.102638         0.299261
 C         1.290024        -0.110199         0.206207
 C         1.940942         1.267450         0.274014
 O         3.319584         1.112051         0.125619
 C         3.343531        -0.371888        -0.042328
 C         2.343424        -1.064898         0.986201
 C         2.097104        -2.171355        -0.093220
 C         2.110879        -0.893373        -0.964857
 O         2.061150        -0.809941        -2.280086
 H        -0.634769        -1.167546         0.087373
 H        -0.436551         0.076377         1.359162
 H        -0.537584         0.523838        -0.490304
 H         1.483769         1.858655        -0.579536
 H         1.599768         1.727770         1.164698
 H         4.453164        -0.702911        -0.101318
 H         2.441807        -1.190762         2.034814
 H         3.026368        -2.656642        -0.257443
 H         1.226844        -2.834269        -0.088620
 H         1.714673         0.041075        -2.564258
