19
Iteration:  2280
 C        -0.211048        -0.114273         0.350712
 C         1.243852        -0.069286         0.114253
 C         2.032468         1.327407         0.334492
 O         3.397527         1.053212         0.244762
 C         3.383061        -0.360874         0.027816
 C         2.246741        -1.063387         0.906231
 C         2.109999        -2.105147        -0.141347
 C         2.160635        -0.798599        -0.961319
 O         1.984376        -0.947743        -2.382168
 H        -0.371153        -0.161372         1.397600
 H        -0.853280         0.783122         0.014314
 H        -0.585039        -1.093155        -0.117894
 H         1.645219         2.090678        -0.406437
 H         1.858573         1.726131         1.348378
 H         4.306079        -0.812117        -0.060069
 H         2.267906        -1.275258         1.984438
 H         2.961294        -2.821839        -0.338809
 H         1.162390        -2.654247        -0.140309
 H         1.965109        -0.115874        -2.977069
