19
Iteration:  2743
 C        -0.151742        -0.326448         0.383768
 C         1.305871        -0.014886         0.291187
 C         1.959272         1.376253         0.381490
 O         3.378238         1.084676         0.077301
 C         3.258139        -0.413072        -0.102925
 C         2.240537        -1.007221         0.914193
 C         1.956528        -2.193152        -0.159835
 C         2.105185        -0.842327        -0.947034
 O         2.268236        -0.728344        -2.283641
 H        -0.540256        -0.072748         1.330458
 H        -0.635937         0.339912        -0.359795
 H        -0.306530        -1.338194         0.158133
 H         1.576154         1.907386        -0.451296
 H         1.853958         1.986421         1.171757
 H         4.241963        -0.803916        -0.195616
 H         2.183114        -1.117841         1.992019
 H         2.820592        -2.826946        -0.314964
 H         0.975378        -2.721564        -0.183670
 H         1.467552        -0.848026        -2.897825
