19
Iteration:  4918charge 0 multiplicity 1
 C        -0.080632        -0.309438         0.140167
 C         1.354881         0.004554         0.183968
 C         1.939307         1.456841         0.179617
 O         3.372864         1.078236         0.108770
 C         3.354004        -0.312600         0.004124
 C         2.313872        -0.943831         1.006854
 C         2.056221        -2.056092         0.015872
 C         2.136435        -0.855060        -0.855589
 O         1.887054        -1.050347        -2.244123
 H        -0.298317        -1.313215         0.655901
 H        -0.709075         0.386857         0.659434
 H        -0.370998        -0.356891        -0.897767
 H         1.770457         2.117631        -0.613804
 H         1.802253         1.941402         1.137898
 H         4.314291        -0.840123        -0.053598
 H         2.527039        -1.061580         2.057111
 H         2.767631        -2.976867        -0.103964
 H         1.223099        -2.777835        -0.017117
 H         1.975568        -0.230091        -2.678930
