19
Iteration:  4333charge 0 multiplicity 1
 C        -0.178308        -0.339548         0.332162
 C         1.343832        -0.061250         0.177737
 C         1.893156         1.300012         0.294539
 O         3.378995         1.088205         0.089827
 C         3.339608        -0.375811        -0.004023
 C         2.338995        -1.063108         0.957957
 C         2.019148        -2.186335        -0.115332
 C         2.157934        -0.868756        -0.929704
 O         2.030573        -0.633959        -2.294996
 H        -0.579266        -0.394702         1.480580
 H        -0.788843         0.566842         0.144471
 H        -0.538285        -1.161757        -0.315327
 H         1.666253         1.986304        -0.551117
 H         1.719873         1.705215         1.289256
 H         4.379441        -0.798760        -0.223092
 H         2.236857        -1.152960         1.972659
 H         2.666145        -2.967400        -0.364195
 H         1.021677        -2.500941         0.118187
 H         2.745918        -0.258825        -2.754713
