19
Iteration:   497
 C        -0.231210         0.042211         0.371987
 C         1.337398         0.024465         0.217529
 C         2.171598         1.361824         0.231827
 O         3.557027         0.796692         0.145537
 C         3.321135        -0.551010        -0.077692
 C         2.123787        -0.987667         0.974110
 C         1.893322        -2.140938        -0.063199
 C         2.113511        -0.885968        -0.958511
 O         2.070169        -0.734929        -2.345420
 H        -0.422520         0.516272         1.341472
 H        -0.778713         0.617892        -0.365767
 H        -0.731280        -0.982657         0.288414
 H         1.888645         2.023553        -0.653397
 H         2.098200         2.009333         1.189116
 H         4.179262        -1.171138        -0.109561
 H         2.385672        -1.213601         1.992053
 H         2.605385        -2.956558        -0.003762
 H         0.908608        -2.505345        -0.195912
 H         1.144399        -0.538869        -2.563899
