19
Iteration:  1221
 C        -0.230531         0.066675         0.089120
 C         1.427505        -0.015457         0.286415
 C         2.095806         1.272016         0.284417
 O         3.508918         0.925563         0.225169
 C         3.382887        -0.490079        -0.101197
 C         2.316256        -1.150202         0.967606
 C         1.960923        -2.151350        -0.121130
 C         2.086813        -0.781414        -0.846178
 O         1.802542        -0.791326        -2.255188
 H        -0.581514         1.157043         0.179732
 H        -0.634330        -0.257491        -0.764640
 H        -0.775670        -0.579215         0.839267
 H         1.701293         1.889643        -0.487185
 H         2.102639         1.708510         1.276243
 H         4.352702        -1.112924        -0.115887
 H         2.516540        -1.358644         2.037991
 H         2.710930        -2.867484        -0.456617
 H         0.936329        -2.497650        -0.014770
 H         2.265163        -0.090034        -2.639210
