19
Iteration:  2571charge 0 multiplicity 1
 C        -0.218639        -0.071513         0.334629
 C         1.310796        -0.084187         0.215015
 C         1.914558         1.290721         0.289631
 O         3.268213         1.003551         0.175607
 C         3.263029        -0.420846         0.023998
 C         2.379327        -1.080278         0.917197
 C         2.102351        -2.146948        -0.166271
 C         2.228609        -0.857892        -0.959866
 O         2.045948        -0.685150        -2.355426
 H        -0.205025         0.423515         1.355419
 H        -0.722135         0.318745        -0.480733
 H        -0.602704        -0.989003         0.522889
 H         1.575918         1.818140        -0.564210
 H         1.836372         1.780802         1.286102
 H         4.264929        -0.714792         0.014836
 H         2.465757        -1.194609         1.982623
 H         2.883036        -2.816969        -0.306170
 H         1.205280        -2.699268        -0.049932
 H         2.560307        -1.414688        -2.663407
