19
Iteration:  1127
 C        -0.122141         0.082934         0.392178
 C         1.331145        -0.071347         0.260073
 C         2.049917         1.273348         0.295827
 O         3.418636         0.913438         0.227133
 C         3.312353        -0.488484        -0.089197
 C         2.294289        -1.154041         0.880606
 C         1.787483        -2.137097        -0.170944
 C         2.128504        -0.788297        -0.951000
 O         2.139474        -0.694141        -2.360579
 H        -0.450297         0.889705        -0.245959
 H        -0.933502        -0.767147         0.421228
 H        -0.099841         0.370798         1.416656
 H         1.770142         1.872838        -0.645289
 H         1.897448         1.828976         1.233610
 H         4.331050        -0.850757        -0.131239
 H         2.373754        -1.284333         1.979686
 H         2.458558        -2.985870        -0.519671
 H         0.727126        -2.465894        -0.050944
 H         1.680112        -1.571467        -2.658368
