19
Iteration:  1631charge 0 multiplicity 1
 C        -0.103464        -0.191589         0.218184
 C         1.363978        -0.050568         0.235618
 C         2.019962         1.349120         0.177590
 O         3.410183         0.988902         0.203650
 C         3.365540        -0.448504         0.021924
 C         2.261048        -1.107253         0.980316
 C         1.866735        -2.123676        -0.108420
 C         2.184612        -0.855734        -0.874479
 O         1.991859        -0.602900        -2.320587
 H        -0.451420        -0.468956         1.280005
 H        -0.436874         0.815434        -0.092365
 H        -0.406653        -1.019276        -0.379469
 H         1.812380         1.796275        -0.858658
 H         1.795672         1.969653         1.066747
 H         4.325566        -0.852394        -0.481578
 H         2.520050        -1.302039         2.045469
 H         2.650161        -2.894484        -0.111136
 H         0.860545        -2.530280         0.078342
 H         1.454954        -1.392791        -2.405190
