19
Iteration:  4484
 C        -0.181053        -0.275811         0.454681
 C         1.315495        -0.079650         0.118545
 C         1.901067         1.368853         0.201623
 O         3.298084         1.057801         0.048584
 C         3.323263        -0.407356        -0.044919
 C         2.317731        -1.010135         0.962544
 C         1.959971        -2.132575        -0.064160
 C         2.166890        -0.875959        -0.898782
 O         2.134689        -0.757438        -2.291332
 H        -0.697310        -0.447475        -0.526708
 H        -0.383433        -1.087115         1.172933
 H        -0.676363         0.601809         0.855107
 H         1.629392         2.097547        -0.607664
 H         1.903100         1.980514         1.177131
 H         4.464955        -0.690045        -0.031278
 H         2.448008        -1.181898         2.046220
 H         2.900353        -2.802425        -0.229632
 H         0.922829        -2.691383        -0.078088
 H         2.972596        -0.484566        -2.577798
