19
Iteration:   717
 C        -0.185649        -0.012459         0.096377
 C         1.403728        -0.034279         0.246038
 C         2.116085         1.331023         0.339723
 O         3.589493         0.900731         0.165748
 C         3.314101        -0.529485        -0.022367
 C         2.333888        -1.091632         0.986157
 C         1.939544        -2.114930        -0.065730
 C         2.080089        -0.832657        -0.906784
 O         1.826945        -0.733643        -2.325283
 H        -0.825370         0.325673         1.008558
 H        -0.380995         0.530017        -0.789193
 H        -0.641037        -1.122505         0.053905
 H         1.748998         1.981864        -0.471440
 H         2.094544         1.830119         1.254292
 H         4.326074        -1.011622        -0.089744
 H         2.413742        -1.314105         2.116318
 H         2.646794        -2.925902        -0.202664
 H         0.887690        -2.429440         0.099526
 H         1.108575         0.018604        -2.431499
