19
Iteration:  4947
 C        -0.251611        -0.302936         0.295460
 C         1.271650        -0.083689         0.169043
 C         1.912096         1.337767         0.098085
 O         3.385325         1.064372         0.024438
 C         3.412372        -0.325606        -0.023069
 C         2.351600        -0.918635         0.980774
 C         2.010249        -2.130269         0.078236
 C         2.181470        -0.890549        -0.836123
 O         2.028523        -0.861523        -2.280712
 H        -0.371705        -0.922076         1.181089
 H        -0.890373         0.609973         0.436845
 H        -0.514599        -0.560939        -0.752447
 H         1.706031         1.985242        -0.851522
 H         1.730973         1.801116         1.097750
 H         4.294883        -0.919333         0.040986
 H         2.525616        -0.994005         2.171500
 H         2.900609        -2.843152         0.002583
 H         0.984682        -2.546245         0.153862
 H         2.411967         0.055949        -2.457435
