19
Iteration:  3025charge 0 multiplicity 1
 C        -0.249947        -0.085939         0.222273
 C         1.304052        -0.163680         0.287243
 C         1.848538         1.222586         0.269047
 O         3.368564         0.972039         0.064238
 C         3.341388        -0.382827         0.005845
 C         2.376622        -1.107940         0.997614
 C         2.205807        -2.175505        -0.095002
 C         2.149278        -0.913021        -0.862981
 O         1.970338        -0.596324        -2.316894
 H        -0.630665         0.652845         0.920801
 H        -0.484060         0.447387        -0.794295
 H        -0.768130        -1.010416         0.299515
 H         1.331782         1.793733        -0.614531
 H         1.637927         1.865709         1.228110
 H         4.364155        -0.823680        -0.084491
 H         2.495057        -1.008490         2.120893
 H         2.997042        -2.822345        -0.292752
 H         1.280435        -2.797519        -0.118091
 H         2.696608         0.109719        -2.433802
