19
Iteration:   167charge 0 multiplicity 1
 C        -0.148939         0.056383         0.317617
 C         1.341156        -0.008082         0.261308
 C         2.193421         1.284949         0.132536
 O         3.632531         0.878963        -0.003617
 C         3.328693        -0.548610         0.086315
 C         2.118110        -1.112660         0.979474
 C         1.789515        -2.185861        -0.063802
 C         2.068488        -0.864475        -0.897694
 O         1.925506        -0.574577        -2.251712
 H        -0.539801         0.092040         1.359042
 H        -0.551337         0.983066        -0.270055
 H        -0.546064        -0.786397        -0.173783
 H         1.911666         1.799960        -0.721418
 H         2.060098         1.964978         0.977581
 H         4.300742        -1.196222         0.170108
 H         2.183083        -1.295548         2.063579
 H         2.520178        -2.966141        -0.285008
 H         0.811187        -2.672764        -0.082217
 H         2.691576        -1.100327        -2.665323
