19
Iteration:  2509
 C        -0.188068        -0.219369         0.259941
 C         1.334867        -0.076792         0.218188
 C         1.994350         1.291847         0.196213
 O         3.379974         0.969915         0.093427
 C         3.313035        -0.393537         0.003239
 C         2.313644        -1.026059         1.020465
 C         2.077796        -2.156134        -0.086218
 C         2.102240        -0.853464        -0.865755
 O         1.985016        -0.610343        -2.294679
 H        -0.782026        -0.410914         1.229845
 H        -0.721807         0.624566        -0.258822
 H        -0.390337        -1.197344        -0.300816
 H         1.542156         1.847232        -0.684058
 H         1.747382         1.776336         1.182878
 H         4.240644        -0.917496        -0.232809
 H         2.228888        -1.135267         2.102130
 H         2.989437        -2.866078        -0.115071
 H         1.155953        -2.682434         0.117883
 H         2.827917        -0.434741        -2.696707
