19
Iteration:  4148
 C        -0.244830        -0.231072         0.437149
 C         1.268222        -0.142732         0.219250
 C         1.901702         1.296914         0.281068
 O         3.328758         1.042926         0.167483
 C         3.371645        -0.369170        -0.018955
 C         2.311735        -1.123432         0.928823
 C         2.038316        -2.177610        -0.214614
 C         2.132201        -0.823033        -0.975324
 O         2.139506        -0.614053        -2.355714
 H        -0.753124        -0.312781        -0.519868
 H        -0.427090        -1.166929         1.121477
 H        -0.570767         0.601098         1.135159
 H         1.628818         1.973374        -0.484599
 H         1.678209         1.724263         1.271779
 H         4.371195        -0.828239        -0.285238
 H         2.460022        -1.396247         1.938177
 H         3.052564        -2.715638        -0.327198
 H         1.151992        -2.937962        -0.174712
 H         2.619376         0.190925        -2.480558
