19
Iteration:  4863
 C        -0.201138        -0.011028         0.234118
 C         1.323900        -0.056072         0.243819
 C         1.878803         1.290607         0.172873
 O         3.259648         1.094752        -0.016139
 C         3.344493        -0.343000        -0.014366
 C         2.358063        -0.927024         0.983952
 C         2.188423        -2.230618         0.049360
 C         2.121440        -0.966536        -0.859289
 O         2.058004        -0.990662        -2.234051
 H        -0.593180        -0.868219        -0.370060
 H        -0.478191         0.073680         1.257546
 H        -0.695385         0.750618        -0.322083
 H         1.544596         1.872869        -0.701454
 H         1.744032         2.026621         0.968198
 H         4.265034        -0.846498        -0.186035
 H         2.334466        -0.963660         2.092006
 H         3.299825        -2.685926        -0.114456
 H         1.241695        -2.879806         0.221478
 H         2.138830        -0.082573        -2.491203
