19
Iteration:   706charge 0 multiplicity 1
 C        -0.101739         0.021864         0.110771
 C         1.336277         0.002642         0.303355
 C         2.143652         1.327681         0.372240
 O         3.513812         0.936769         0.166417
 C         3.384968        -0.451743        -0.067228
 C         2.334978        -1.175469         0.978574
 C         1.878685        -2.156794        -0.103031
 C         2.035205        -0.795825        -0.870368
 O         1.872852        -0.797744        -2.295269
 H        -0.590822         0.802217         0.805889
 H        -0.381295         0.362149        -0.858686
 H        -0.462705        -1.130281         0.064502
 H         1.942985         2.021896        -0.461058
 H         1.895820         1.797733         1.267504
 H         4.343549        -0.937204        -0.397866
 H         2.475218        -1.405964         2.106314
 H         2.527584        -2.954464        -0.459181
 H         0.874069        -2.621043         0.032209
 H         1.105206        -0.283455        -2.645096
