19
Iteration:   192
 C        -0.091751         0.039845         0.120741
 C         1.390023         0.004331         0.194861
 C         2.215879         1.322702         0.188924
 O         3.493553         0.798094         0.207149
 C         3.299629        -0.576690        -0.072220
 C         2.339748        -1.071288         0.996661
 C         1.787831        -2.082165        -0.018667
 C         2.118617        -0.870335        -0.882767
 O         1.789816        -0.614866        -2.166866
 H        -0.552593         0.356612         1.052967
 H        -0.414990         0.656816        -0.727653
 H        -0.504421        -0.974796        -0.150279
 H         2.022150         1.770256        -0.766054
 H         2.042951         2.032135         0.978819
 H         4.286376        -1.116532        -0.155426
 H         2.586260        -1.219667         2.135678
 H         2.180469        -3.060964        -0.443542
 H         0.665554        -2.332278        -0.030991
 H         2.486082        -1.090654        -2.778906
