19
Iteration:  3805charge 0 multiplicity 1
 C        -0.273819        -0.161360         0.376061
 C         1.271081        -0.155234         0.205760
 C         1.928303         1.236347         0.491870
 O         3.350618         1.021547         0.245880
 C         3.335855        -0.412685        -0.062108
 C         2.326380        -1.196314         0.804495
 C         2.167714        -2.186761        -0.265133
 C         2.111651        -0.753090        -0.992251
 O         2.058749        -0.603220        -2.331788
 H        -0.480051         0.500477         1.203660
 H        -0.749005         0.345249        -0.440622
 H        -0.548908        -1.159453         0.633154
 H         1.506965         2.128057        -0.038597
 H         1.846258         1.578175         1.497734
 H         4.320385        -0.707528        -0.482207
 H         2.385038        -1.447999         1.837168
 H         3.167549        -2.716187        -0.486723
 H         1.239198        -2.773559        -0.246905
 H         2.407966         0.254648        -2.730309
