19
Iteration:  2485charge 0 multiplicity 1
 C        -0.202310        -0.086909         0.192264
 C         1.343179        -0.121431         0.180832
 C         1.866141         1.331652         0.253121
 O         3.327273         1.034462         0.047432
 C         3.408476        -0.398984        -0.001431
 C         2.380803        -1.147397         0.950272
 C         2.065385        -2.251367        -0.046508
 C         2.242174        -0.893517        -0.819035
 O         1.941203        -0.658001        -2.212548
 H        -0.804256         0.039129         1.231908
 H        -0.396606         0.805286        -0.370738
 H        -0.735727        -0.872729        -0.286456
 H         1.357639         1.908168        -0.513577
 H         1.758344         1.745418         1.329757
 H         4.326528        -0.784993        -0.204011
 H         2.444712        -1.299033         2.023346
 H         2.873149        -2.980387        -0.113305
 H         1.077101        -2.608703        -0.221537
 H         2.610596        -0.014304        -2.668909
