19
Iteration:  1729charge 0 multiplicity 1
 C        -0.218455        -0.162425         0.270919
 C         1.326039        -0.063907         0.165706
 C         1.973460         1.268885         0.267934
 O         3.455940         0.986028         0.183935
 C         3.353055        -0.408863        -0.042760
 C         2.352075        -1.049760         0.933781
 C         1.875733        -2.155409        -0.099173
 C         2.166930        -0.837862        -0.926994
 O         2.042977        -0.717719        -2.250500
 H        -0.464826         0.764306         1.081525
 H        -0.548534        -0.004951        -0.795531
 H        -0.589936        -1.127555         0.620123
 H         1.694758         1.792714        -0.731079
 H         1.757240         1.729031         1.259756
 H         4.353828        -0.847193        -0.387338
 H         2.452390        -1.328074         1.968125
 H         2.537990        -2.987955        -0.268911
 H         0.871936        -2.452498         0.134347
 H         2.065820         0.226743        -2.569404
