19
Iteration:  3571
 C        -0.213578        -0.203781         0.473590
 C         1.269092        -0.141181         0.201916
 C         1.906690         1.231797         0.262620
 O         3.308574         1.054302         0.084859
 C         3.354899        -0.393092        -0.025792
 C         2.304938        -1.099126         0.937580
 C         2.063063        -2.229228        -0.193865
 C         2.165890        -0.859755        -0.939413
 O         2.133792        -0.553629        -2.304883
 H        -0.747657         0.807552         0.599380
 H        -0.824473        -0.623177        -0.456419
 H        -0.590106        -0.610744         1.404735
 H         1.592443         1.890214        -0.475050
 H         1.839821         1.811072         1.127494
 H         4.269133        -0.817829        -0.146168
 H         2.529396        -1.238704         2.036578
 H         2.794032        -2.974474        -0.462796
 H         0.957914        -2.630918        -0.144475
 H         2.943788        -0.140462        -2.490071
