19
Iteration:  1163
 C        -0.286346        -0.091653         0.552315
 C         1.292045         0.032181         0.165296
 C         2.160463         1.329718         0.205262
 O         3.512132         0.831443         0.022212
 C         3.280677        -0.537795         0.014805
 C         2.120561        -1.025697         0.914295
 C         1.809597        -2.169026        -0.162241
 C         2.122015        -0.847458        -0.963466
 O         2.293077        -0.616851        -2.302551
 H        -0.823940         0.823291         0.677834
 H        -0.822816        -0.869392        -0.048254
 H        -0.248801        -0.277496         1.673503
 H         1.771849         2.016846        -0.567445
 H         2.123185         1.894450         1.130942
 H         4.157294        -1.149940         0.003936
 H         2.260331        -1.095854         1.984128
 H         2.573677        -2.917825        -0.322018
 H         0.862137        -2.694706        -0.046992
 H         1.346090        -0.299108        -2.649796
