19
Iteration:  3836
 C        -0.144571        -0.117917         0.195898
 C         1.347902        -0.233438         0.281847
 C         1.896658         1.167503         0.478807
 O         3.332701         1.032521         0.268280
 C         3.384341        -0.404087         0.009622
 C         2.372296        -1.167773         0.856031
 C         2.176294        -2.148902        -0.320227
 C         2.154430        -0.800639        -0.972925
 O         1.849628        -0.553295        -2.267049
 H        -0.426009         0.900225         0.518920
 H        -0.411475        -0.154178        -0.835639
 H        -0.745955        -0.888786         0.627613
 H         1.482301         2.017575        -0.318669
 H         1.815092         1.483736         1.544775
 H         4.466737        -0.673197        -0.299214
 H         2.467412        -1.398763         1.880444
 H         2.984117        -2.945761        -0.551283
 H         1.300683        -2.755452        -0.358797
 H         1.951002         0.357299        -2.491765
