19
Iteration:   649charge 0 multiplicity 1
 C        -0.174326         0.030732         0.473191
 C         1.283194         0.021050         0.136674
 C         2.120829         1.354872         0.270630
 O         3.514356         0.849685         0.068049
 C         3.284255        -0.577717        -0.011228
 C         2.133366        -1.017990         0.946904
 C         1.943717        -2.208845        -0.079819
 C         2.078374        -0.898664        -0.991907
 O         2.099760        -0.597120        -2.350304
 H        -0.443297         0.886015         1.079106
 H        -0.875718         0.045603        -0.362072
 H        -0.401910        -0.795660         1.206725
 H         2.044324         2.135926        -0.486340
 H         1.998017         1.748107         1.239674
 H         4.115012        -1.219625        -0.036579
 H         2.111997        -1.077747         2.008579
 H         2.760790        -2.946355        -0.152475
 H         1.043512        -2.740908        -0.017592
 H         1.849085        -1.364791        -2.829391
