19
Iteration:  4895charge 0 multiplicity 1
 C        -0.217820        -0.133884         0.092982
 C         1.311536        -0.099692         0.124777
 C         1.943541         1.335287         0.235542
 O         3.358608         1.128478         0.102356
 C         3.400903        -0.289359         0.037562
 C         2.399747        -0.905141         0.978434
 C         2.174716        -2.121757         0.032536
 C         2.212206        -0.915963        -0.840864
 O         1.828386        -1.066362        -2.263890
 H        -0.651409        -1.170487         0.257416
 H        -0.523868         0.417969         0.983487
 H        -0.614971         0.361911        -0.780387
 H         1.644583         1.954052        -0.558048
 H         1.751124         1.805775         1.198139
 H         4.324220        -0.790550        -0.045328
 H         2.264918        -0.921337         2.099323
 H         2.922723        -3.037799         0.039837
 H         1.309087        -2.787063         0.172136
 H         1.936860        -0.117529        -2.638462
