19
Iteration:  1918charge 0 multiplicity 1
 C        -0.132229        -0.101657         0.223053
 C         1.348824        -0.108643         0.243307
 C         1.946014         1.268787         0.239883
 O         3.389436         0.953943         0.127979
 C         3.312690        -0.422990         0.018808
 C         2.256351        -1.102795         0.953110
 C         2.080796        -2.138387        -0.146225
 C         2.151209        -0.868627        -0.873337
 O         1.908316        -0.647838        -2.215907
 H        -0.506883         0.425847         1.111126
 H        -0.404674         0.292109        -0.781855
 H        -0.460834        -1.133774         0.116139
 H         1.667966         1.857593        -0.655303
 H         1.756128         1.968023         1.035358
 H         4.329671        -0.851091        -0.083646
 H         2.466539        -1.091603         2.076125
 H         3.003277        -2.598981        -0.328708
 H         1.253700        -2.836881        -0.195935
 H         2.612443        -0.092450        -2.705339
