19
Iteration:   152charge 0 multiplicity 1
 C        -0.178862         0.128150         0.407093
 C         1.313345         0.005877         0.076515
 C         2.199913         1.315943         0.187057
 O         3.487804         0.772124         0.019603
 C         3.267953        -0.597826        -0.008561
 C         2.134724        -1.021779         0.995219
 C         1.896410        -2.175194        -0.080439
 C         2.110817        -0.938118        -0.893878
 O         2.032256        -0.584071        -2.218451
 H        -0.198761         0.113697         1.513671
 H        -0.642830         1.039259         0.089699
 H        -0.864166        -0.698809         0.017759
 H         1.963950         2.012834        -0.740004
 H         2.164573         1.794649         1.224175
 H         4.149471        -1.129112        -0.169350
 H         2.071177        -0.997166         2.057963
 H         2.584155        -3.027543        -0.076631
 H         0.894296        -2.619438        -0.112514
 H         2.680538        -0.956014        -2.746977
