19
Iteration:  3684
 C        -0.236518        -0.178338         0.140041
 C         1.361253        -0.134093         0.207886
 C         1.941300         1.246251         0.447295
 O         3.308545         0.973897         0.213425
 C         3.354919        -0.352697        -0.024120
 C         2.425446        -1.123729         0.924787
 C         2.108377        -2.095301        -0.229183
 C         2.210922        -0.779699        -0.900003
 O         1.861621        -0.684581        -2.276115
 H        -0.475674        -0.948350        -0.639277
 H        -0.489661        -0.477845         1.357079
 H        -0.569750         0.830691        -0.206634
 H         1.504787         2.009868        -0.152269
 H         1.936997         1.544620         1.531245
 H         4.450689        -0.733643        -0.214825
 H         2.582425        -1.415824         1.937679
 H         2.974964        -2.844893        -0.531192
 H         1.150515        -2.544685        -0.122094
 H         2.269674         0.109638        -2.677329
