19
Iteration:   757
 C        -0.109478        -0.070142         0.324524
 C         1.345653        -0.030571         0.205766
 C         2.096901         1.354079         0.173085
 O         3.512149         0.911358         0.072445
 C         3.328225        -0.539912         0.077706
 C         2.204917        -1.090486         0.967569
 C         1.874666        -2.138613        -0.080352
 C         2.081532        -0.905049        -0.906811
 O         1.959805        -0.653324        -2.300949
 H        -0.368568        -0.263495         1.305580
 H        -0.525669         0.953274         0.150717
 H        -0.562043        -0.773351        -0.338707
 H         1.795681         1.912907        -0.747428
 H         2.006723         1.984568         1.148353
 H         4.203618        -1.120770        -0.156871
 H         2.276081        -1.237290         2.025570
 H         2.596879        -2.961968        -0.242259
 H         0.937054        -2.626813        -0.116798
 H         2.275402         0.195863        -2.434789
