19
Iteration:  1608charge 0 multiplicity 1
 C        -0.261677        -0.173639         0.136806
 C         1.327665        -0.028999         0.173521
 C         2.118261         1.312690         0.196870
 O         3.466714         0.944162         0.150486
 C         3.399989        -0.499812         0.039154
 C         2.257396        -0.994624         1.023628
 C         2.061712        -2.166443        -0.109151
 C         2.160823        -0.907325        -0.899587
 O         1.839893        -0.510407        -2.181230
 H        -0.829192        -0.472518         1.167994
 H        -0.704196         0.690567        -0.351782
 H        -0.474044        -1.092224        -0.400105
 H         1.924572         1.770804        -0.856713
 H         1.868446         1.818608         1.172248
 H         4.410678        -1.026838        -0.026739
 H         2.448483        -1.077284         2.143427
 H         2.845770        -2.824280        -0.491156
 H         1.093274        -2.635127         0.143558
 H         1.795236        -1.431740        -2.660355
