19
Iteration:  1874charge 0 multiplicity 1
 C        -0.125481        -0.197251         0.488600
 C         1.316655        -0.010811         0.124868
 C         1.946418         1.307803         0.179984
 O         3.333054         0.974189         0.211949
 C         3.319754        -0.483781        -0.035640
 C         2.235741        -0.976550         0.883484
 C         1.943365        -2.157280        -0.113006
 C         2.121564        -0.846733        -0.942856
 O         2.230859        -0.735184        -2.338307
 H        -0.103830         0.000461         1.542189
 H        -0.681358         0.589261        -0.058644
 H        -0.500234        -1.148704         0.178714
 H         1.635105         1.979048        -0.593292
 H         1.669218         1.821018         1.070435
 H         4.292466        -0.948316        -0.168120
 H         2.279076        -1.212807         1.951776
 H         2.595245        -2.962321        -0.012247
 H         0.930151        -2.525926        -0.112197
 H         1.827041         0.104883        -2.728798
