19
Iteration:  1763charge 0 multiplicity 1
 C        -0.109422        -0.234685         0.166616
 C         1.361966        -0.003483         0.159139
 C         2.083430         1.314736         0.210589
 O         3.506254         0.944817         0.214113
 C         3.316371        -0.463078         0.067817
 C         2.237400        -1.073165         1.005427
 C         2.072593        -2.130527        -0.111786
 C         2.158327        -0.820550        -0.903701
 O         1.742900        -0.611829        -2.248516
 H        -0.906237         0.512924         0.648211
 H        -0.569751        -0.162736        -0.875268
 H        -0.479694        -1.210436         0.403976
 H         1.782394         1.953092        -0.641255
 H         1.827910         2.027811         1.017403
 H         4.276612        -0.990328         0.142479
 H         2.099123        -1.309660         2.005464
 H         2.931805        -2.733264        -0.349059
 H         1.248922        -2.795900         0.055817
 H         2.406718        -0.536806        -2.900851
