19
Iteration:  4008charge 0 multiplicity 1
 C        -0.161661        -0.387699         0.193285
 C         1.326004        -0.124809         0.298442
 C         1.958834         1.309232         0.376116
 O         3.412795         1.066888         0.307254
 C         3.399470        -0.430823        -0.054366
 C         2.418870        -1.139562         0.910204
 C         2.002969        -2.129210        -0.242772
 C         2.113819        -0.785855        -0.930443
 O         1.878741        -0.574071        -2.320940
 H        -0.513577        -1.204650         0.869072
 H        -0.684458         0.568203        -0.005451
 H        -0.327689        -0.894714        -0.770906
 H         1.696607         2.254708        -0.365785
 H         1.702909         1.655146         1.435405
 H         4.535125        -0.676263        -0.082446
 H         2.531704        -1.331703         1.928301
 H         2.751059        -2.803720        -0.644684
 H         1.038854        -2.441565        -0.171540
 H         1.957615         0.404595        -2.493964
