19
Iteration:  3292
 C        -0.180553        -0.289295         0.267714
 C         1.274042        -0.081947         0.169582
 C         1.991460         1.275550         0.375561
 O         3.343690         0.995189         0.124343
 C         3.358142        -0.395354         0.003702
 C         2.296685        -0.969738         0.931037
 C         2.050631        -2.105764        -0.073901
 C         2.134830        -0.814697        -0.932464
 O         2.037521        -0.739097        -2.385717
 H        -0.485555        -0.112402         1.279242
 H        -0.666790         0.238183        -0.474139
 H        -0.463702        -1.356987         0.139643
 H         1.719627         2.080150        -0.306600
 H         1.799183         1.792535         1.488223
 H         4.375685        -0.683592        -0.105188
 H         2.455260        -1.133386         2.017910
 H         2.822768        -2.894474        -0.297679
 H         1.146126        -2.588079         0.054187
 H         2.147742         0.281725        -2.439128
