19
Iteration:   150
 C        -0.181563         0.133053         0.414940
 C         1.303509         0.021740         0.079586
 C         2.183218         1.324937         0.186205
 O         3.472734         0.755671         0.025370
 C         3.280790        -0.610227        -0.008283
 C         2.145608        -1.016448         0.978684
 C         1.896439        -2.168796        -0.075395
 C         2.121064        -0.939930        -0.908640
 O         2.035957        -0.584118        -2.218743
 H        -0.167172         0.136930         1.503538
 H        -0.614826         1.040011         0.119144
 H        -0.886122        -0.681246         0.039216
 H         1.980033         2.067001        -0.709977
 H         2.133308         1.741299         1.222044
 H         4.178534        -1.134793        -0.243875
 H         2.067927        -0.960780         2.117613
 H         2.589270        -3.048431        -0.040848
 H         0.888660        -2.689033        -0.107746
 H         2.756464        -1.001726        -2.738653
