19
Iteration:   384charge 0 multiplicity 1
 C        -0.145316         0.136626         0.175348
 C         1.384767         0.004434         0.162035
 C         2.189633         1.279195         0.430322
 O         3.565824         0.880099         0.116288
 C         3.309616        -0.532703        -0.023513
 C         2.222991        -1.084229         1.006366
 C         1.835338        -2.046252        -0.053773
 C         2.109487        -0.828425        -0.967406
 O         1.909653        -0.913386        -2.326579
 H        -0.640024         0.462908         1.091572
 H        -0.423756         0.983899        -0.593469
 H        -0.563233        -0.755793        -0.164964
 H         1.919547         2.183629        -0.224828
 H         2.150919         1.623634         1.481198
 H         4.362055        -1.093628        -0.121363
 H         2.366018        -1.220815         2.097720
 H         2.457127        -2.917982        -0.203985
 H         0.770169        -2.361881        -0.081219
 H         1.178285        -0.379568        -2.593788
