19
Iteration:   735
 C        -0.159212        -0.067501         0.185596
 C         1.322193        -0.005093         0.115031
 C         2.176528         1.285418         0.251072
 O         3.498220         0.834086         0.132884
 C         3.402277        -0.554451        -0.006169
 C         2.219322        -0.964937         0.943400
 C         1.930296        -2.182190        -0.036430
 C         2.168594        -0.889052        -0.888476
 O         1.815779        -0.628331        -2.235102
 H        -0.460489         0.003341         1.182766
 H        -0.646495         0.782005        -0.356540
 H        -0.447659        -0.997609        -0.223652
 H         2.114500         2.053991        -0.538825
 H         1.890825         1.695927         1.302989
 H         4.403137        -0.909991        -0.020270
 H         2.268881        -0.928411         2.001881
 H         2.709171        -2.969629        -0.083186
 H         1.019469        -2.712206        -0.027920
 H         1.460061         0.364280        -2.295486
