19
Iteration:    25
 C        -0.129937         0.155842         0.130467
 C         1.384067        -0.021114         0.384339
 C         2.162998         1.290428         0.203453
 O         3.535584         0.852649         0.044351
 C         3.364981        -0.582949        -0.074169
 C         2.246618        -1.185143         1.039067
 C         1.814229        -2.193244        -0.099112
 C         2.071185        -0.864172        -0.821568
 O         1.912635        -0.563331        -2.166123
 H        -0.611030         0.917031         0.730454
 H        -0.158886         0.545018        -0.925423
 H        -0.673554        -0.691434         0.130697
 H         1.781452         1.913633        -0.727174
 H         2.018399         2.007444         0.992775
 H         4.335109        -1.146529        -0.214608
 H         2.360641        -1.442560         2.048618
 H         2.499762        -2.963155        -0.428242
 H         0.789802        -2.464436        -0.117556
 H         1.577217        -1.351080        -2.602182
