19
Iteration:  1230
 C        -0.194061         0.097426         0.067887
 C         1.325686        -0.049876         0.224277
 C         2.123973         1.285630         0.382217
 O         3.548611         0.902557         0.225667
 C         3.384095        -0.470805        -0.023665
 C         2.294646        -1.106663         0.952484
 C         1.998370        -2.145881        -0.159958
 C         2.114437        -0.828050        -0.906517
 O         1.713550        -0.803858        -2.211873
 H        -0.598598         1.126137         0.246667
 H        -0.414223        -0.215054        -0.951526
 H        -0.623687        -0.579612         0.890320
 H         1.785885         1.942149        -0.467843
 H         1.900463         1.894122         1.258234
 H         4.407532        -0.896925        -0.270733
 H         2.601850        -1.205677         1.991498
 H         2.831592        -2.763215        -0.401536
 H         1.066051        -2.697831        -0.090662
 H         2.330511        -0.424685        -2.778850
