19
Iteration:  3022charge 0 multiplicity 1
 C         1.203715         2.961891         0.194760
 C         1.986639         1.731755         0.051410
 C         3.068468         1.397834         0.955959
 O         3.491115         0.020312         0.557190
 C         2.733009        -0.124590        -0.707548
 C         2.520539         1.351064        -1.350587
 O         1.175576         0.999486        -1.905150
 C         1.293879         0.476710        -0.437256
 C         0.137475        -0.211558         0.238843
 H         0.732449         2.828265         1.176214
 H         1.974920         3.762062         0.270714
 H         0.588111         3.175957        -0.587746
 H         3.999242         2.075450         0.764143
 H         2.997181         1.371810         2.061146
 H         2.995596        -1.180101        -1.174998
 H         3.184009         2.076069        -1.849360
 H         0.468104        -0.598139         1.201594
 H        -0.640611         0.360674         0.733154
 H        -0.215135        -1.005607        -0.559473
