19
Iteration:  1618charge 0 multiplicity 1
 C         1.211323         3.077140         0.139800
 C         2.011522         1.799653         0.014735
 C         3.123160         1.330467         1.045395
 O         3.417392         0.000528         0.558941
 C         2.770174        -0.028076        -0.677593
 C         2.521993         1.394277        -1.417538
 O         1.154416         0.925230        -1.774730
 C         1.286743         0.385388        -0.455948
 C         0.160753        -0.270268         0.184559
 H         1.014600         3.208945         1.170970
 H         1.870654         3.984881        -0.093859
 H         0.253851         3.037257        -0.400830
 H         4.009987         2.046825         0.833425
 H         2.868403         1.402646         2.052054
 H         2.981374        -0.914693        -1.216914
 H         3.207346         1.961104        -2.224504
 H         0.638981        -0.920121         1.035910
 H        -0.660748         0.343987         0.566826
 H        -0.285903        -1.048514        -0.449042
