19
Iteration:   395
 C         1.198878         3.050286         0.301999
 C         2.012164         1.819446        -0.025399
 C         3.133348         1.277262         0.896251
 O         3.300169        -0.096086         0.566049
 C         2.712347        -0.036004        -0.701808
 C         2.541123         1.506442        -1.387447
 O         1.146640         0.931700        -1.823472
 C         1.349518         0.534818        -0.436107
 C         0.267292        -0.293270         0.202714
 H         0.608324         2.897454         1.215238
 H         1.861458         4.031059         0.503506
 H         0.575478         3.298290        -0.518253
 H         4.128213         1.766951         0.950343
 H         2.829158         1.265165         2.011422
 H         3.213849        -0.848970        -1.432778
 H         3.161916         1.865771        -2.220600
 H         0.539291        -0.659592         1.332227
 H        -0.728656         0.230161         0.349689
 H         0.156479        -1.343562        -0.455990
