19
Iteration:  2341
 C         1.240571         3.060432         0.270584
 C         1.988245         1.855222         0.006168
 C         3.160296         1.419442         0.983303
 O         3.411125        -0.002609         0.490884
 C         2.715376        -0.048280        -0.663697
 C         2.575806         1.297404        -1.334909
 O         1.130892         0.911405        -1.894784
 C         1.242556         0.459078        -0.391627
 C         0.168742        -0.328750         0.198477
 H         0.753428         3.137394         1.248048
 H         2.053042         3.978075         0.377118
 H         0.459829         3.249066        -0.487314
 H         3.988567         1.996138         0.599696
 H         3.208114         1.472077         2.088679
 H         2.805685        -0.876832        -1.180892
 H         3.247315         1.728943        -2.055394
 H         0.462912        -0.511826         1.166868
 H        -0.861615         0.093613         0.246536
 H         0.183565        -1.204485        -0.542302
