19
Iteration:  3190
 C         1.261883         3.094078         0.243416
 C         1.979644         1.775223         0.010601
 C         3.078040         1.253678         1.046259
 O         3.595705         0.056580         0.498866
 C         2.754999        -0.030612        -0.729032
 C         2.513371         1.380718        -1.373898
 O         1.203952         0.864086        -1.837225
 C         1.272623         0.413453        -0.444773
 C         0.034428        -0.237851         0.207644
 H         0.462058         2.795550         1.018981
 H         1.696545         3.991520         0.468994
 H         0.627867         3.136285        -0.719471
 H         3.967994         1.948829         1.124513
 H         2.671034         1.188602         2.135142
 H         2.903303        -0.785258        -1.364868
 H         3.129884         2.064879        -1.954661
 H         0.259436        -0.667139         1.179221
 H        -0.504829         0.725484         0.397131
 H        -0.659308        -0.740237        -0.576413
