19
Iteration:  1277charge 0 multiplicity 1
 C         1.396728         3.073104         0.253375
 C         1.958536         1.726690         0.091742
 C         3.054387         1.368000         1.023672
 O         3.700159         0.205724         0.394784
 C         2.744083        -0.074132        -0.665872
 C         2.546699         1.356475        -1.340611
 O         1.096418         0.844384        -1.811558
 C         1.184781         0.400166        -0.414421
 C        -0.025024        -0.335114         0.136442
 H         1.128673         3.265524         1.277511
 H         2.157115         3.775192        -0.154151
 H         0.535486         3.329751        -0.528324
 H         3.697229         2.250352         1.342572
 H         2.557981         1.020480         1.912212
 H         2.903296        -0.943817        -1.158806
 H         3.225928         1.859425        -2.148687
 H         0.009965        -0.321082         1.175101
 H        -0.904678         0.307450         0.005391
 H        -0.293468        -1.348631        -0.248412
