19
Iteration:  4129
 C         1.312937         3.111200         0.316765
 C         1.923637         1.780531         0.052045
 C         3.114295         1.313919         1.042058
 O         3.489784         0.020646         0.467803
 C         2.739869         0.019357        -0.749454
 C         2.481148         1.374132        -1.353592
 O         1.231118         0.897342        -1.838457
 C         1.270991         0.391596        -0.465780
 C         0.083589        -0.326540         0.166705
 H         0.638320         3.322661         1.102670
 H         2.100078         3.972269         0.472251
 H         0.907320         3.562677        -0.671156
 H         3.659411         2.189362         0.900390
 H         2.746548         1.253021         2.033871
 H         2.956157        -0.919974        -1.305695
 H         3.114062         1.933170        -1.922625
 H         0.328915        -0.805727         1.209755
 H        -0.927431         0.179980         0.232989
 H        -0.094395        -1.171166        -0.409526
