19
Iteration:  2534charge 0 multiplicity 1
 C         1.332225         3.153149         0.190915
 C         2.002046         1.775392         0.016548
 C         2.980539         1.217773         1.106917
 O         3.660559         0.125266         0.440755
 C         2.701911        -0.040692        -0.710278
 C         2.481271         1.329232        -1.387793
 O         1.079936         0.966400        -1.820934
 C         1.283626         0.337676        -0.388064
 C         0.117182        -0.281025         0.212016
 H         0.863861         3.313635         1.134254
 H         1.948620         3.917029        -0.005497
 H         0.675418         3.338521        -0.742215
 H         3.759977         1.974569         1.356661
 H         2.482193         0.853665         1.964011
 H         3.063545        -0.934839        -1.372306
 H         3.198257         1.801305        -2.085322
 H         0.313772        -0.521278         1.228278
 H        -0.736108         0.354492         0.214041
 H        -0.121895        -1.279936        -0.273315
