19
Iteration:   428charge 0 multiplicity 1
 C         1.239151         2.968289         0.255046
 C         1.996524         1.733318         0.031284
 C         2.980050         1.257506         1.074615
 O         3.541606         0.087484         0.401452
 C         2.715327        -0.073239        -0.737035
 C         2.590233         1.334898        -1.409039
 O         1.205154         1.079055        -1.882840
 C         1.228055         0.466821        -0.436003
 C         0.147428        -0.239160         0.330235
 H         0.726379         2.988830         1.221308
 H         1.948206         3.889317         0.140570
 H         0.471938         3.021748        -0.513800
 H         3.703815         2.024859         1.346070
 H         2.408941         0.830769         1.952453
 H         3.102681        -0.971916        -1.367282
 H         3.301024         1.737958        -2.156152
 H         0.801715        -0.804099         1.103242
 H        -0.609579         0.451702         0.782383
 H        -0.482691        -1.027214        -0.303976
