19
Iteration:  2672
 C         1.299732         3.030162         0.207666
 C         1.984914         1.746489         0.021725
 C         3.068040         1.228028         1.122844
 O         3.612985         0.133505         0.403296
 C         2.831037         0.016290        -0.711506
 C         2.473359         1.361363        -1.429961
 O         1.154425         0.891494        -1.794673
 C         1.229771         0.389211        -0.456590
 C        -0.011555        -0.202803         0.234301
 H         0.750254         3.050662         1.206891
 H         2.002479         3.931051         0.101057
 H         0.680845         3.143544        -0.577646
 H         3.875460         1.938373         1.269407
 H         2.468232         0.827257         1.992707
 H         3.284090        -0.869300        -1.194498
 H         3.092969         1.819241        -2.144253
 H         0.353240        -0.275962         1.375543
 H        -0.876717         0.533726         0.343114
 H        -0.330373        -1.143506        -0.158916
