19
Iteration:  1014
 C         1.256994         3.005919         0.173634
 C         2.065344         1.803310         0.015464
 C         2.976241         1.166494         1.092292
 O         3.725356         0.135741         0.372688
 C         2.894418        -0.034332        -0.742480
 C         2.442646         1.369384        -1.467743
 O         1.081310         0.910097        -1.728372
 C         1.278767         0.419700        -0.376190
 C        -0.021445        -0.151307         0.279194
 H         0.696055         3.071020         1.087350
 H         1.877882         3.847907         0.343377
 H         0.623929         3.149513        -0.692092
 H         3.619047         1.828664         1.603009
 H         2.422527         0.495839         1.869393
 H         3.221376        -0.868518        -1.291185
 H         2.959723         1.717209        -2.377426
 H        -0.036424        -0.156285         1.413946
 H        -0.727741         0.622174        -0.159400
 H        -0.189551        -1.207481         0.020349
