19
Iteration:  2965charge 0 multiplicity 1
 C         1.225405         3.010587         0.221688
 C         2.010857         1.795613         0.022893
 C         3.002827         1.264326         1.064427
 O         3.593013         0.089118         0.470093
 C         2.721309        -0.072336        -0.688917
 C         2.455825         1.359640        -1.447582
 O         1.152405         0.891938        -1.781441
 C         1.364804         0.426287        -0.400974
 C         0.138292        -0.160966         0.200212
 H         0.795505         3.147490         1.127979
 H         2.038157         3.808185         0.135784
 H         0.505521         3.082825        -0.550639
 H         3.793899         2.036034         1.250134
 H         2.413261         1.059511         1.932488
 H         2.934476        -0.885161        -1.248718
 H         3.093523         1.739323        -2.239391
 H         0.360250        -0.779662         1.120080
 H        -0.583491         0.664535         0.102187
 H        -0.226089        -0.868845        -0.487459
