19
Iteration:  3783charge 0 multiplicity 1
 C         1.372874         3.155506         0.227255
 C         1.911503         1.783719         0.103899
 C         3.027677         1.350990         1.041487
 O         3.511890         0.003314         0.393500
 C         2.776694        -0.045879        -0.716243
 C         2.495428         1.395819        -1.289102
 O         1.180040         0.910343        -1.775907
 C         1.236536         0.415434        -0.465390
 C         0.128286        -0.324059         0.163117
 H         0.514083         3.132837         1.013444
 H         2.084284         3.901195         0.304635
 H         0.717528         3.468153        -0.677708
 H         3.920628         1.914318         1.111348
 H         2.814556         0.867074         1.961587
 H         2.882231        -0.978069        -1.395276
 H         3.184069         2.012743        -1.916135
 H         0.352246        -0.801208         1.118105
 H        -0.779656         0.318824         0.206914
 H        -0.069597        -1.053244        -0.568006
