19
Iteration:  2665
 C         1.326953         2.974276         0.188255
 C         1.987672         1.709223         0.052061
 C         3.080328         1.294034         1.128497
 O         3.591686         0.144009         0.386652
 C         2.745693        -0.044851        -0.705012
 C         2.495156         1.382155        -1.411602
 O         1.117839         0.885525        -1.825342
 C         1.300933         0.383736        -0.387308
 C         0.018312        -0.162080         0.213427
 H         0.853752         2.873916         1.179068
 H         1.948589         3.782522         0.328207
 H         0.439859         3.170880        -0.612517
 H         3.805543         2.091358         1.244697
 H         2.471773         1.023581         2.012400
 H         3.327358        -0.915177        -1.248397
 H         3.152783         1.998472        -2.115787
 H         0.292370        -0.277747         1.183684
 H        -0.708482         0.581456         0.295834
 H        -0.314561        -1.061909        -0.373299
