19
Iteration:  3078
 C         1.393860         3.081210         0.201587
 C         1.941532         1.765676         0.070056
 C         3.026062         1.296307         1.014077
 O         3.652923         0.147880         0.426419
 C         2.765754         0.022900        -0.622579
 C         2.520878         1.268995        -1.391309
 O         1.113802         0.894889        -1.784535
 C         1.178956         0.498636        -0.410301
 C         0.045459        -0.334091         0.104758
 H         0.764674         3.133260         1.142455
 H         2.161680         3.803593         0.353672
 H         0.722684         3.325778        -0.534718
 H         3.816300         2.092308         1.278912
 H         2.643517         0.847783         1.966876
 H         2.866065        -1.033997        -1.090295
 H         3.260289         1.792966        -2.007170
 H         0.271919        -0.480719         1.132234
 H        -0.854706         0.234972        -0.035176
 H        -0.307743        -1.411064        -0.256946
