19
Iteration:  2079charge 0 multiplicity 1
 C         1.179446         2.972261         0.293744
 C         2.021967         1.747710         0.014503
 C         3.099621         1.382403         0.996421
 O         3.420017         0.019078         0.569427
 C         2.791455        -0.010854        -0.722908
 C         2.516972         1.294776        -1.457730
 O         1.148198         0.909087        -1.845396
 C         1.363198         0.420867        -0.485151
 C         0.207648        -0.131214         0.201306
 H         0.558376         2.716249         1.200201
 H         1.619695         4.067039         0.462439
 H         0.409161         3.013269        -0.441275
 H         3.938248         2.048895         0.848803
 H         2.800086         1.337719         2.094028
 H         2.988760        -1.009797        -1.148121
 H         3.062133         1.945096        -2.190248
 H         0.454413        -0.294020         1.279344
 H        -0.748692         0.532275         0.234260
 H        -0.254318        -1.142093        -0.190862
