19
Iteration:  4481charge 0 multiplicity 1
 C         1.226239         3.057116         0.291017
 C         1.963914         1.753860         0.070944
 C         3.079364         1.332995         1.054116
 O         3.365441        -0.019883         0.496166
 C         2.765897         0.031764        -0.764399
 C         2.578143         1.411578        -1.345162
 O         1.187052         0.954128        -1.859133
 C         1.298327         0.383612        -0.501050
 C         0.172589        -0.321897         0.196546
 H         0.908094         3.060198         1.307434
 H         1.877322         4.008473         0.087743
 H         0.493050         3.286749        -0.445454
 H         4.084550         1.903491         1.064641
 H         2.742844         1.180595         2.151660
 H         3.041516        -0.858680        -1.363780
 H         3.285014         1.987785        -1.931687
 H         0.462511        -0.397242         1.200893
 H        -0.460583         0.507903        -0.055891
 H        -0.214938        -1.240342        -0.414379
