19
Iteration:  4763
 C         1.132510         3.041986         0.349110
 C         2.076079         1.764629         0.014167
 C         3.106509         1.339863         1.053905
 O         3.424327        -0.018437         0.572680
 C         2.749570        -0.095631        -0.730719
 C         2.559373         1.405861        -1.473148
 O         1.212360         0.958702        -1.895865
 C         1.282373         0.444728        -0.483470
 C         0.173055        -0.210643         0.207688
 H         0.719576         2.759148         1.279112
 H         1.614866         4.035821         0.332194
 H         0.356247         3.063431        -0.415797
 H         3.948737         2.005860         1.120610
 H         2.691023         1.404051         2.134445
 H         3.033133        -1.063529        -1.275895
 H         3.124487         1.854305        -2.215968
 H         0.399485        -0.757307         1.047375
 H        -0.668959         0.458560         0.335144
 H        -0.276047        -0.914645        -0.603179
