19
Iteration:  4914charge 0 multiplicity 1
 C         1.213958         3.100106         0.283988
 C         1.955484         1.732094         0.084162
 C         3.127027         1.351457         1.009390
 O         3.392589        -0.027308         0.551251
 C         2.808315         0.004328        -0.770738
 C         2.517130         1.395314        -1.421460
 O         1.218077         0.979147        -1.887296
 C         1.295013         0.382245        -0.427562
 C         0.143749        -0.296642         0.191447
 H         0.846977         3.171061         1.325397
 H         1.945487         3.929437         0.234536
 H         0.340461         2.946353        -0.462627
 H         4.126545         1.865327         0.889112
 H         2.827287         1.135682         2.006658
 H         2.925392        -0.984697        -1.328917
 H         3.136069         2.138073        -1.931018
 H         0.373788        -0.592114         1.199469
 H        -0.610938         0.506179         0.284850
 H        -0.331527        -1.192459        -0.414629
