19
Iteration:   809charge 0 multiplicity 1
 C         1.177806         3.042727         0.508029
 C         1.999950         1.828719         0.040149
 C         3.256863         1.419213         0.824063
 O         3.396721        -0.008495         0.543846
 C         2.679996        -0.116271        -0.668165
 C         2.516494         1.384826        -1.384820
 O         1.243914         0.948070        -1.948176
 C         1.257976         0.445035        -0.526733
 C         0.084478        -0.309046         0.228388
 H         0.841073         2.827373         1.487267
 H         1.831581         3.960803         0.545810
 H         0.245318         3.207925        -0.191025
 H         4.226804         2.003998         0.385313
 H         3.413165         1.352353         1.850962
 H         2.806570        -0.985638        -1.181062
 H         3.396240         1.753446        -2.094162
 H         0.181638        -0.218432         1.242097
 H        -0.841073         0.305706         0.090354
 H         0.040562        -1.403442        -0.103020
