19
Iteration:   910charge 0 multiplicity 1
 C         1.319892         3.161705         0.259043
 C         2.013946         1.766844         0.033568
 C         3.055256         1.304448         1.022549
 O         3.540987         0.062263         0.440473
 C         2.689262        -0.020937        -0.682059
 C         2.514417         1.299782        -1.405526
 O         1.133109         0.988482        -1.859445
 C         1.243891         0.393611        -0.409971
 C         0.143634        -0.367905         0.251459
 H         0.707674         3.170708         1.155612
 H         2.073540         3.987748         0.208327
 H         0.579500         3.349754        -0.587398
 H         3.977003         1.982172         1.210505
 H         2.583401         1.190951         1.964542
 H         2.937127        -0.982256        -1.268845
 H         3.125627         1.832109        -2.186259
 H         0.610862        -1.057053         0.894267
 H        -0.550333         0.222379         0.850307
 H        -0.513903        -0.778414        -0.549869
