19
Iteration:  4869
 C         1.295246         3.148424         0.329006
 C         2.095038         1.809908         0.048350
 C         3.035562         1.316338         1.115022
 O         3.524596         0.118650         0.479687
 C         2.663572        -0.101250        -0.732697
 C         2.514104         1.283681        -1.444505
 O         1.165690         0.983775        -1.851406
 C         1.321977         0.467153        -0.371624
 C         0.081627        -0.407012         0.103963
 H         0.815704         3.230007         1.334489
 H         2.055224         3.931750         0.365653
 H         0.584962         3.264791        -0.584910
 H         3.812528         2.134147         1.105886
 H         2.502592         1.151190         2.028413
 H         2.809778        -1.014771        -1.337655
 H         3.160969         1.741654        -2.301776
 H         0.006595        -0.842032         1.158456
 H        -0.911264         0.059367        -0.048063
 H         0.116746        -1.316390        -0.522608
