19
Iteration:  2556charge 0 multiplicity 1
 C         1.355285         3.110584         0.157962
 C         2.005924         1.740338         0.056826
 C         2.950082         1.243661         1.102853
 O         3.585118         0.115650         0.369258
 C         2.732412        -0.039430        -0.748781
 C         2.519374         1.357587        -1.370504
 O         1.207112         0.898955        -1.765122
 C         1.162885         0.512597        -0.393970
 C         0.128172        -0.299720         0.241974
 H         0.883268         3.143304         1.114358
 H         1.947074         3.930705         0.004504
 H         0.581630         3.279749        -0.696405
 H         3.807354         1.918827         1.248142
 H         2.462547         0.970659         1.994448
 H         2.886704        -1.093428        -1.155786
 H         3.000427         1.982352        -2.145715
 H         0.480321        -0.678337         1.150297
 H        -0.782518         0.198032         0.475944
 H        -0.108123        -1.209531        -0.394871
