19
Iteration:  3589charge 0 multiplicity 1
 C         1.282268         3.042919         0.264777
 C         1.971026         1.742140         0.031831
 C         3.047763         1.279684         1.060202
 O         3.552498         0.014632         0.543954
 C         2.707281        -0.070092        -0.712831
 C         2.499406         1.360176        -1.444795
 O         1.126208         1.010001        -1.838685
 C         1.281924         0.436291        -0.475236
 C         0.199585        -0.249080         0.189319
 H         0.935835         3.329541         1.293002
 H         1.935343         3.977411        -0.109438
 H         0.469294         3.001844        -0.426242
 H         3.782144         2.070670         1.218989
 H         2.461360         1.122512         1.947656
 H         2.948030        -0.947726        -1.393332
 H         3.254321         1.971668        -1.948997
 H         0.518915        -0.610888         1.156005
 H        -0.726872         0.396412         0.324369
 H        -0.227743        -1.032376        -0.486487
