19
Iteration:  1303
 C         1.351137         3.162698         0.176377
 C         1.971785         1.730240         0.018123
 C         2.939025         1.208484         1.107861
 O         3.624375         0.162797         0.409506
 C         2.862894         0.002877        -0.721465
 C         2.466652         1.349325        -1.413390
 O         1.093891         0.821807        -1.813257
 C         1.274242         0.370958        -0.334189
 C         0.111459        -0.239498         0.200824
 H         1.071999         3.202792         1.265073
 H         2.037901         3.982066        -0.252850
 H         0.541266         3.405380        -0.458669
 H         3.512946         2.000653         1.455814
 H         2.378310         0.738987         2.066955
 H         3.128051        -0.940003        -1.361529
 H         3.057676         1.946905        -2.125493
 H         0.162155        -0.513375         1.347786
 H        -0.626930         0.579889         0.359074
 H        -0.396996        -1.001793        -0.430456
