19
Iteration:  1582
 C         1.294961         3.037924         0.132440
 C         1.977986         1.723938         0.092979
 C         2.944535         1.250636         1.118576
 O         3.662195         0.272603         0.353938
 C         2.763023        -0.008380        -0.679993
 C         2.558076         1.189241        -1.446415
 O         1.207478         0.890578        -1.783652
 C         1.263351         0.465625        -0.326775
 C        -0.046703        -0.246294         0.218100
 H         0.616638         3.087923         0.955080
 H         2.080916         3.732715         0.296434
 H         0.738785         3.549968        -0.858964
 H         3.701256         1.970991         1.343272
 H         2.633838         0.715279         2.065143
 H         3.041002        -1.048618        -1.193764
 H         3.130474         1.771136        -2.292607
 H         0.403548        -0.940596         0.943175
 H        -0.655293         0.457884         0.817524
 H        -0.583197        -0.675518        -0.688444
