19
Iteration:   465charge 0 multiplicity 1
 C         1.247126         3.055752         0.259731
 C         2.046748         1.731002         0.137027
 C         3.080395         1.192871         1.131845
 O         3.660072         0.131467         0.361444
 C         2.843519         0.041682        -0.756841
 C         2.444991         1.320940        -1.375853
 O         1.133717         0.845479        -1.750072
 C         1.252914         0.386837        -0.453426
 C        -0.023556        -0.131222         0.134496
 H         0.652976         3.325467         1.126101
 H         1.903578         3.825059         0.094014
 H         0.626345         3.063854        -0.687024
 H         3.846246         2.044251         1.489940
 H         2.698228         0.805428         2.004457
 H         3.133862        -0.718428        -1.360843
 H         2.917227         1.902601        -2.188559
 H         0.108568        -0.994250         0.716695
 H        -0.626072         0.644715         0.716683
 H        -0.579871        -0.527873        -0.796271
