19
Iteration:   483charge 0 multiplicity 1
 C         1.265162         3.031716         0.281975
 C         1.987296         1.762954         0.033907
 C         3.163316         1.332039         1.021855
 O         3.627728         0.043083         0.426472
 C         2.787042        -0.046403        -0.704469
 C         2.472027         1.424838        -1.377239
 O         1.114917         0.867462        -1.781175
 C         1.308966         0.410858        -0.294335
 C        -0.047333        -0.224095         0.047764
 H         0.801079         2.888006         1.254216
 H         1.972339         3.927459         0.421831
 H         0.479704         3.182849        -0.506237
 H         3.946836         2.050410         1.114804
 H         2.773750         1.184621         2.094574
 H         2.967287        -0.939811        -1.330317
 H         3.082995         2.053029        -2.072582
 H        -0.066319        -1.050513         0.771849
 H        -0.562398         0.553997         0.623700
 H        -0.430703        -0.545874        -0.990561
