19
Iteration:  1762charge 0 multiplicity 1
 C         1.156226         2.986042         0.192916
 C         2.032981         1.801320        -0.009325
 C         3.107936         1.370887         1.066166
 O         3.488156         0.052245         0.508877
 C         2.771417        -0.072832        -0.690691
 C         2.516428         1.301973        -1.432204
 O         1.155124         0.896123        -1.795662
 C         1.304099         0.445141        -0.397277
 C         0.142551        -0.196656         0.200403
 H         0.611267         2.898742         1.135939
 H         1.806566         3.886237         0.386906
 H         0.550493         3.244925        -0.590112
 H         3.953176         2.117324         0.957115
 H         2.757420         1.328017         2.037897
 H         3.054528        -0.917701        -1.331342
 H         3.187927         1.873727        -2.170996
 H         0.212069        -0.790460         1.093598
 H        -0.545528         0.649450         0.281328
 H        -0.180061        -0.918794        -0.550162
