19
Iteration:  4594
 C         1.172761         2.979242         0.279464
 C         1.997589         1.741737        -0.015489
 C         3.020676         1.268702         1.064043
 O         3.611110         0.075596         0.438230
 C         2.714936        -0.071662        -0.690989
 C         2.576569         1.349948        -1.380488
 O         1.239944         1.019886        -1.830665
 C         1.302944         0.459289        -0.402474
 C         0.032686        -0.195390         0.170127
 H         0.622959         2.723407         1.230352
 H         1.772419         3.840509         0.488713
 H         0.468621         3.242461        -0.519367
 H         3.812516         2.033088         1.093563
 H         2.460892         1.120743         2.017865
 H         3.043589        -0.990294        -1.267654
 H         3.425813         1.610938        -2.067285
 H         0.178535        -0.917179         0.999600
 H        -0.803376         0.490606         0.353058
 H        -0.328358        -0.878616        -0.524221
