19
Iteration:  1995
 C         1.342391         3.133618         0.112994
 C         2.025818         1.807460         0.082045
 C         3.035408         1.232713         1.130559
 O         3.565646         0.164947         0.445677
 C         2.778882        -0.001675        -0.722658
 C         2.465479         1.372271        -1.394648
 O         1.077544         0.862733        -1.741813
 C         1.335169         0.367460        -0.400613
 C         0.051442        -0.330511         0.156938
 H         0.783896         3.471641         1.073614
 H         2.032829         3.875330        -0.083033
 H         0.711558         3.000021        -0.769468
 H         3.799945         2.007650         1.521708
 H         2.446773         0.961983         1.974446
 H         3.195368        -0.785439        -1.304569
 H         3.079978         1.746689        -2.142941
 H         0.197515        -0.918828         1.013379
 H        -0.701743         0.395751         0.337351
 H        -0.171981        -0.992363        -0.634547
