19
Iteration:   821charge 0 multiplicity 1
 C         1.157886         3.017203         0.447913
 C         1.970581         1.790108         0.037939
 C         3.245328         1.368987         0.906456
 O         3.502333        -0.035079         0.475799
 C         2.633244        -0.069892        -0.644584
 C         2.560767         1.301823        -1.395073
 O         1.259157         0.962287        -1.945179
 C         1.196517         0.485065        -0.442063
 C         0.106824        -0.215308         0.206290
 H         0.803336         2.832423         1.394466
 H         1.706964         3.996755         0.548609
 H         0.198650         3.218141        -0.215120
 H         4.124777         2.049590         0.446187
 H         3.130351         1.571701         1.933276
 H         2.768463        -0.933896        -1.182318
 H         3.138984         1.985268        -2.161765
 H         0.489446        -0.322239         1.153827
 H        -0.943197         0.142454         0.141518
 H         0.026115        -1.334640        -0.137125
