19
Iteration:   936charge 0 multiplicity 1
 C         1.302103         3.017570         0.337607
 C         2.079685         1.791933        -0.019722
 C         3.200643         1.430210         0.868765
 O         3.318661         0.013630         0.606026
 C         2.685254        -0.024600        -0.679971
 C         2.505548         1.358973        -1.451951
 O         1.094019         0.924740        -1.779414
 C         1.301633         0.458099        -0.398027
 C         0.220839        -0.332547         0.103138
 H         0.877001         2.870962         1.404768
 H         1.951084         3.857268         0.339496
 H         0.484094         3.221836        -0.260635
 H         4.140718         1.911019         0.756877
 H         2.758186         1.611156         1.923696
 H         2.872683        -1.019269        -1.242364
 H         2.903866         1.860879        -2.275832
 H         0.797584        -0.940098         0.988565
 H        -0.620707         0.246507         0.537944
 H        -0.242869        -0.849887        -0.694854
