19
Iteration:  1750charge 0 multiplicity 1
 C         1.216516         3.010563         0.200680
 C         2.021958         1.734110         0.035129
 C         3.056883         1.355563         0.999511
 O         3.618512         0.142374         0.450178
 C         2.716271        -0.034474        -0.668721
 C         2.557002         1.303983        -1.325156
 O         1.128973         0.895648        -1.838683
 C         1.322358         0.367527        -0.385376
 C         0.061312        -0.198733         0.185901
 H         0.430543         2.818031         0.871191
 H         1.822288         3.936299         0.473971
 H         0.718039         3.125599        -0.761823
 H         3.897787         2.040143         1.241193
 H         2.607540         1.092218         1.938404
 H         2.888978        -0.906224        -1.148577
 H         3.256380         1.771869        -2.128503
 H         0.163829        -0.562372         1.224399
 H        -0.644577         0.612550         0.300755
 H        -0.441618        -0.819874        -0.480592
