19
Iteration:  3421charge 0 multiplicity 1
 C         1.187532         3.092649         0.236474
 C         2.049573         1.792295         0.055091
 C         3.150625         1.302162         0.942131
 O         3.403905        -0.000986         0.523959
 C         2.684093        -0.052390        -0.766240
 C         2.571000         1.412930        -1.359989
 O         1.179869         0.941199        -1.788552
 C         1.282856         0.458776        -0.423284
 C         0.185334        -0.318699         0.165115
 H         0.990448         3.240213         1.348107
 H         1.788018         3.969201         0.159633
 H         0.298135         3.184258        -0.585432
 H         4.084191         1.872507         0.979424
 H         2.756561         1.389002         1.920821
 H         2.582287        -1.143258        -1.118024
 H         3.424844         1.982477        -1.852667
 H         0.376462        -0.682127         1.238727
 H        -0.772736         0.254634         0.239443
 H        -0.121642        -1.183811        -0.470628
