19
Iteration:  2357
 C         1.304486         3.115835         0.223528
 C         2.042405         1.762045        -0.000050
 C         3.132967         1.346775         0.923462
 O         3.453984         0.026687         0.562636
 C         2.645936        -0.026129        -0.670587
 C         2.480010         1.374555        -1.412489
 O         1.188413         0.951163        -1.814095
 C         1.271662         0.460996        -0.408655
 C         0.165555        -0.383970         0.201789
 H         0.677187         3.007619         1.169743
 H         1.910920         3.950728         0.188957
 H         0.477845         3.204460        -0.508374
 H         4.004339         2.070972         0.986583
 H         2.640201         1.384802         1.935132
 H         2.886028        -1.035417        -1.320472
 H         3.107023         1.980263        -2.161481
 H         0.444538        -0.784747         1.284740
 H        -0.750818         0.229141         0.293234
 H        -0.111010        -1.273909        -0.308886
