19
Iteration:  4864charge 0 multiplicity 1
 C         1.298945         3.151168         0.288323
 C         2.089803         1.849251         0.048103
 C         2.996403         1.313690         1.093626
 O         3.557635         0.102032         0.481901
 C         2.707526        -0.093491        -0.687234
 C         2.505544         1.318774        -1.468866
 O         1.135137         0.976712        -1.826134
 C         1.297324         0.422769        -0.361073
 C         0.087050        -0.394186         0.104359
 H         0.772206         3.153231         1.239217
 H         2.136776         3.872533         0.435036
 H         0.622141         3.267858        -0.473422
 H         3.903200         1.952190         1.242269
 H         2.556142         0.981907         2.111501
 H         2.865761        -0.888356        -1.421880
 H         3.116175         1.633283        -2.318119
 H         0.019964        -0.766095         1.125901
 H        -0.839668         0.121894        -0.179275
 H         0.053963        -1.217369        -0.638829
