19
Iteration:  2252
 C         1.184622         2.990294         0.165701
 C         1.988561         1.727460         0.002072
 C         3.057205         1.244536         1.052076
 O         3.613855         0.129047         0.442199
 C         2.762288         0.001582        -0.793109
 C         2.575088         1.311811        -1.362639
 O         1.208386         0.900128        -1.810156
 C         1.259932         0.472891        -0.360829
 C         0.032200        -0.183798         0.272075
 H         0.690988         3.051677         1.105196
 H         1.914105         3.956739         0.185828
 H         0.498500         3.042441        -0.792088
 H         3.841350         1.994061         1.272912
 H         2.505757         0.902140         1.991599
 H         2.805248        -0.938311        -1.299969
 H         3.164319         1.953610        -2.046825
 H         0.381361        -0.480577         1.246010
 H        -0.718433         0.553717         0.539251
 H        -0.469544        -1.099468        -0.203774
