19
Iteration:   658
 C         1.174380         3.027649         0.514305
 C         2.002589         1.754651         0.047348
 C         3.281690         1.448885         0.850825
 O         3.390161         0.035250         0.538263
 C         2.685788        -0.099096        -0.710468
 C         2.580761         1.251827        -1.441115
 O         1.228920         0.999301        -1.923834
 C         1.218573         0.522051        -0.461126
 C         0.090366        -0.324179         0.194563
 H         0.797239         2.860418         1.485143
 H         1.847482         3.962137         0.529123
 H         0.275861         3.197659        -0.264412
 H         4.124071         2.036550         0.548447
 H         3.151897         1.474590         1.971376
 H         2.838560        -1.074841        -0.985401
 H         3.389730         1.680410        -2.122378
 H         0.568872        -0.855273         0.936453
 H        -0.705384         0.383345         0.484792
 H        -0.526253        -1.017030        -0.531648
