19
Iteration:  4599
 C         1.176230         2.953716         0.307465
 C         2.026616         1.728783        -0.023249
 C         3.020457         1.274389         1.014808
 O         3.619938         0.058215         0.497282
 C         2.704360        -0.059396        -0.722047
 C         2.565928         1.347725        -1.367018
 O         1.233643         1.016310        -1.844618
 C         1.285401         0.475187        -0.396259
 C         0.048379        -0.184687         0.166712
 H         0.604602         2.691215         1.173445
 H         1.564941         4.043486         0.410065
 H         0.425373         3.306261        -0.456183
 H         3.891958         1.930933         1.212871
 H         2.424233         1.205789         1.986052
 H         2.990346        -0.895605        -1.305901
 H         3.317667         1.502249        -2.126358
 H         0.385817        -0.804690         1.044587
 H        -0.787587         0.515502         0.336049
 H        -0.313613        -0.932698        -0.664172
