19
Iteration:  1660charge 0 multiplicity 1
 C         1.197279         3.055807         0.280676
 C         1.978284         1.807740        -0.031300
 C         3.144457         1.411574         0.952080
 O         3.448268        -0.003492         0.560677
 C         2.680436        -0.104465        -0.605711
 C         2.580725         1.306804        -1.418456
 O         1.257489         0.979101        -1.866420
 C         1.188458         0.520052        -0.516025
 C         0.154689        -0.343100         0.239230
 H         0.922702         3.098831         1.280119
 H         1.711322         4.019567         0.176915
 H         0.106330         2.949599        -0.204239
 H         4.058094         1.983409         0.800857
 H         2.997493         1.380534         2.034268
 H         2.872467        -1.043238        -1.160036
 H         3.222582         1.810546        -2.282195
 H         0.499324        -0.108855         1.280890
 H        -0.891378        -0.064534         0.203541
 H         0.195919        -1.307669        -0.227588
