19
Iteration:   820charge 0 multiplicity 1
 C         1.159261         3.020889         0.447452
 C         1.969191         1.799560         0.046233
 C         3.248089         1.375487         0.896711
 O         3.496526        -0.037102         0.481094
 C         2.634700        -0.077569        -0.641120
 C         2.562959         1.309063        -1.393615
 O         1.259345         0.962937        -1.952638
 C         1.199230         0.477703        -0.448701
 C         0.104826        -0.224932         0.207897
 H         0.799377         2.807692         1.427318
 H         1.706613         4.001423         0.551948
 H         0.197107         3.231713        -0.189233
 H         4.115057         2.043010         0.443673
 H         3.182014         1.550599         1.937476
 H         2.763859        -0.933523        -1.173767
 H         3.128437         1.967127        -2.176446
 H         0.486693        -0.277731         1.157662
 H        -0.941306         0.119279         0.140621
 H         0.010551        -1.308627        -0.139254
