19
Iteration:  4271charge 0 multiplicity 1
 C         1.179861         3.035830         0.324770
 C         2.064740         1.753477         0.047701
 C         3.059458         1.293588         1.046436
 O         3.622696         0.109362         0.478108
 C         2.751536        -0.070137        -0.718324
 C         2.551851         1.291216        -1.410808
 O         1.156510         0.903748        -1.831897
 C         1.216587         0.465397        -0.387677
 C         0.071457        -0.206215         0.069292
 H         0.533560         2.925025         1.139722
 H         1.797344         3.930142         0.674876
 H         0.788022         3.554232        -0.577498
 H         3.823743         2.124111         1.185004
 H         2.590838         0.966065         2.034361
 H         2.844899        -0.900474        -1.413897
 H         3.302711         1.803027        -2.017701
 H         0.245499        -0.540089         1.170541
 H        -0.867511         0.432153         0.134495
 H        -0.186498        -1.083883        -0.509524
