19
Iteration:  2750
 C         1.225880         3.066602         0.229089
 C         1.989819         1.769499         0.049556
 C         3.169710         1.359721         0.871591
 O         3.424347         0.051823         0.555059
 C         2.666632        -0.065776        -0.682214
 C         2.525087         1.338796        -1.383994
 O         1.186975         0.970547        -1.753071
 C         1.294329         0.451075        -0.413188
 C         0.179464        -0.319869         0.122131
 H         0.639820         2.968214         1.234516
 H         2.008888         3.818648         0.292027
 H         0.560901         3.279941        -0.529206
 H         4.017308         1.979040         0.781496
 H         2.947079         1.419224         1.952145
 H         2.988819        -1.108910        -1.132417
 H         2.962852         1.923362        -2.175091
 H         0.431566        -0.740180         1.131653
 H        -0.672025         0.339005         0.241068
 H        -0.199855        -1.254614        -0.322455
