19
Iteration:  1546charge 0 multiplicity 1
 C         1.253466         3.074560         0.216082
 C         1.966197         1.793952         0.009217
 C         3.047256         1.337060         1.012308
 O         3.614103         0.094523         0.454251
 C         2.812890        -0.032763        -0.702566
 C         2.487074         1.320088        -1.390752
 O         1.174082         0.790248        -1.811618
 C         1.309842         0.389043        -0.364827
 C         0.041363        -0.176613         0.204450
 H         0.293302         2.902805         0.874799
 H         1.851853         3.724323         0.871381
 H         0.951482         3.517080        -0.752978
 H         3.794104         2.082525         1.104096
 H         2.573294         1.185783         2.065596
 H         3.055805        -0.782278        -1.423521
 H         2.998324         1.873810        -2.070633
 H         0.138996        -0.892223         0.968421
 H        -0.587165         0.638292         0.619322
 H        -0.609157        -0.696728        -0.528536
