19
Iteration:  4578
 C         1.238082         2.998198         0.268132
 C         1.983682         1.681732         0.152951
 C         3.049554         1.320506         1.089455
 O         3.576752         0.137986         0.408585
 C         2.763063        -0.042943        -0.730195
 C         2.582082         1.299576        -1.352720
 O         1.212350         0.955339        -1.833453
 C         1.253127         0.409824        -0.452057
 C         0.010234        -0.233726         0.108834
 H         0.490650         3.113457         1.042089
 H         1.937032         4.024347         0.287354
 H         0.742559         3.295389        -0.697653
 H         3.890662         1.950907         1.391609
 H         2.766331         0.896507         2.052653
 H         2.885373        -1.001002        -1.210703
 H         2.958468         2.102211        -1.951565
 H         0.393837        -0.710497         1.017199
 H        -0.573367         0.655539         0.372083
 H        -0.589312        -0.840848        -0.701054
