19
Iteration:  1267
 C         1.354774         3.066106         0.246358
 C         2.000738         1.734066        -0.031505
 C         3.114072         1.362023         1.007801
 O         3.678604         0.156461         0.424540
 C         2.662928        -0.009903        -0.605982
 C         2.490610         1.297913        -1.318075
 O         1.113971         0.861105        -1.799862
 C         1.192352         0.442105        -0.392970
 C         0.007889        -0.316835         0.105328
 H         0.983960         3.151679         1.264305
 H         2.077580         3.934633         0.191442
 H         0.403575         3.134651        -0.425443
 H         3.897277         2.128717         0.943417
 H         2.843157         1.165344         2.073313
 H         2.782292        -0.887378        -1.112848
 H         3.261455         1.965643        -1.873425
 H         0.067986        -0.425118         1.174485
 H        -0.876911         0.212507        -0.278710
 H         0.079502        -1.387878        -0.265815
