19
Iteration:  2004
 C         1.383149         3.122794         0.118979
 C         2.042377         1.773105         0.024209
 C         2.953922         1.285036         1.081043
 O         3.595726         0.133879         0.433314
 C         2.803960        -0.039221        -0.679260
 C         2.414905         1.366289        -1.362255
 O         1.135905         0.897227        -1.706091
 C         1.302889         0.443391        -0.348578
 C         0.078556        -0.390307         0.133179
 H         0.638151         3.157052         0.958155
 H         2.065609         3.963100        -0.115023
 H         0.757321         3.214079        -0.685708
 H         3.725939         2.026813         1.209200
 H         2.485919         1.008472         2.029203
 H         3.160379        -0.927435        -1.302557
 H         2.829199         2.020282        -2.162953
 H         0.104199        -0.896038         1.001082
 H        -0.666165         0.389157         0.252190
 H        -0.476917        -1.006143        -0.600636
