19
Iteration:  1377
 C         1.170005         2.981490         0.207834
 C         2.053453         1.812504         0.030738
 C         3.239978         1.371272         0.920548
 O         3.389792         0.027685         0.600046
 C         2.728292        -0.024988        -0.668645
 C         2.551288         1.361023        -1.394989
 O         1.144455         0.893179        -1.839652
 C         1.271678         0.429752        -0.460010
 C         0.182774        -0.240130         0.221435
 H         0.315162         2.696777         0.891946
 H         1.706111         3.814798         0.829125
 H         0.544887         3.293427        -0.755873
 H         4.247332         1.894443         0.558805
 H         3.126678         1.488100         2.004919
 H         2.679513        -0.975415        -1.255946
 H         3.145490         2.144409        -2.030628
 H         0.439082        -0.731262         1.180234
 H        -0.658169         0.423073         0.429198
 H        -0.383528        -0.896224        -0.479719
