19
Iteration:  4724charge 0 multiplicity 1
 C         1.328383         3.074641         0.256018
 C         1.957125         1.751720         0.125510
 C         3.031523         1.333551         1.112128
 O         3.551830         0.093085         0.414607
 C         2.736697        -0.030977        -0.668516
 C         2.519218         1.301999        -1.347587
 O         1.207778         0.979804        -1.900174
 C         1.307597         0.387989        -0.439507
 C         0.012577        -0.316017         0.138314
 H         0.577209         3.304772         1.092464
 H         2.096134         3.900216         0.334079
 H         0.636880         3.248374        -0.582957
 H         3.858913         2.121196         1.089748
 H         2.881279         0.955224         2.083244
 H         2.980433        -0.945592        -1.262044
 H         3.080652         2.017405        -2.041068
 H         0.224916        -0.845645         1.140399
 H        -0.913579         0.296237         0.244303
 H        -0.210889        -1.072814        -0.628477
