19
Iteration:  2343charge 0 multiplicity 1
 C         1.254371         3.057554         0.256961
 C         1.983658         1.860793         0.000614
 C         3.148194         1.408148         0.967981
 O         3.416098        -0.002914         0.500303
 C         2.714573        -0.025170        -0.654907
 C         2.558536         1.302538        -1.345081
 O         1.131710         0.916575        -1.892164
 C         1.240677         0.456072        -0.380222
 C         0.177479        -0.347787         0.190311
 H         0.774626         3.116328         1.311370
 H         2.007020         4.005880         0.374707
 H         0.542338         3.203523        -0.499393
 H         4.014269         1.955260         0.601578
 H         3.159365         1.440696         2.123964
 H         2.786383        -0.919294        -1.211162
 H         3.316353         1.747849        -2.010190
 H         0.479172        -0.518010         1.239829
 H        -0.846952         0.162715         0.242468
 H         0.144398        -1.181433        -0.514261
