19
Iteration:   324
 C         1.283639         3.092286         0.271010
 C         2.034443         1.767981         0.056770
 C         3.038649         1.185376         1.138744
 O         3.686142         0.175212         0.366020
 C         2.809673         0.039856        -0.731504
 C         2.433472         1.328582        -1.367144
 O         1.100448         0.799210        -1.760705
 C         1.339145         0.350572        -0.354358
 C        -0.024234        -0.160114         0.049989
 H         0.827191         3.359647         1.267525
 H         1.981304         3.846957         0.060531
 H         0.521975         3.232831        -0.614729
 H         3.823043         1.747600         1.558930
 H         2.408860         0.775032         1.999466
 H         3.061675        -0.819325        -1.239404
 H         2.973073         1.967336        -2.103327
 H        -0.130359        -0.456144         1.124620
 H        -0.747909         0.686496        -0.151481
 H        -0.193374        -1.009114        -0.530284
