19
Iteration:   409
 C         1.187077         3.061071         0.290422
 C         2.067988         1.832066         0.019177
 C         3.068173         1.270887         1.094797
 O         3.377337        -0.068821         0.508930
 C         2.714483        -0.010859        -0.760514
 C         2.530797         1.376472        -1.445800
 O         1.157914         0.970253        -1.856482
 C         1.310568         0.450890        -0.506511
 C         0.294330        -0.254602         0.261572
 H         0.660623         2.920857         1.207877
 H         1.765721         3.948229         0.380569
 H         0.408885         3.171529        -0.517797
 H         4.053799         1.927572         1.057449
 H         2.644060         1.238653         2.050198
 H         2.726777        -0.919156        -1.331830
 H         3.085176         2.074543        -2.143463
 H         0.716217        -0.606548         1.141236
 H        -0.540514         0.430179         0.492120
 H        -0.087518        -1.142409        -0.397541
