19
Iteration:  1382charge 0 multiplicity 1
 C         1.150912         3.032213         0.235524
 C         2.055735         1.781745        -0.007990
 C         3.254688         1.383165         0.957278
 O         3.410760         0.017890         0.578952
 C         2.714353         0.002753        -0.695082
 C         2.565155         1.359714        -1.397381
 O         1.133057         0.866410        -1.844199
 C         1.311394         0.423388        -0.433141
 C         0.136553        -0.247063         0.229193
 H         0.284809         2.852889         0.928713
 H         1.674231         3.795327         0.748031
 H         0.687204         3.320529        -0.627834
 H         4.081389         1.930135         0.667920
 H         3.110884         1.477501         2.078682
 H         2.781105        -0.952604        -1.243470
 H         3.073147         1.954152        -2.077683
 H         0.353817        -0.807919         1.175216
 H        -0.664545         0.543335         0.298733
 H        -0.268011        -0.916990        -0.544467
