19
Iteration:  2832
 C         1.223112         3.035079         0.210015
 C         2.004248         1.809589         0.027812
 C         2.998018         1.279437         1.059214
 O         3.614481         0.044919         0.420905
 C         2.788230        -0.083598        -0.694082
 C         2.511383         1.398715        -1.412129
 O         1.207426         0.911124        -1.847913
 C         1.276260         0.378518        -0.435845
 C         0.061948        -0.181852         0.296247
 H         0.711961         3.105158         1.110193
 H         1.795887         4.011679         0.048775
 H         0.455720         3.061561        -0.673627
 H         3.875833         1.978624         1.283448
 H         2.442760         0.987287         1.950257
 H         3.026954        -1.035115        -1.104053
 H         2.910490         2.104926        -2.185867
 H         0.446501        -0.620280         1.261242
 H        -0.688618         0.576607         0.677083
 H        -0.397880        -0.920961        -0.336252
