19
Iteration:  4802
 C         1.162757         2.984665         0.244781
 C         1.992160         1.781027         0.020180
 C         3.036726         1.301090         1.043858
 O         3.575512         0.037087         0.495454
 C         2.707500        -0.137403        -0.764817
 C         2.601780         1.361710        -1.325443
 O         1.229384         1.024950        -1.855818
 C         1.271865         0.447834        -0.495009
 C         0.062494        -0.215574         0.231572
 H         0.576219         2.945753         1.233186
 H         1.610641         3.958443         0.307242
 H         0.480268         3.158055        -0.684328
 H         3.992994         1.916883         1.078440
 H         2.625458         1.123001         2.000575
 H         3.076554        -1.012145        -1.215143
 H         3.279478         2.038984        -2.039296
 H         0.466272        -0.694487         1.268154
 H        -0.723674         0.534358         0.481625
 H        -0.201935        -1.060813        -0.311868
