19
Iteration:  1802charge 0 multiplicity 1
 C         1.205667         3.055971         0.239617
 C         1.994533         1.781303        -0.013663
 C         3.139369         1.484581         1.002912
 O         3.336952         0.051846         0.529580
 C         2.630285        -0.083169        -0.724873
 C         2.564225         1.274378        -1.338184
 O         1.265035         0.977468        -1.913032
 C         1.249027         0.424047        -0.449700
 C         0.213992        -0.351546         0.249703
 H         1.211454         3.179460         1.286318
 H         1.873200         3.961988        -0.041283
 H         0.033267         3.164528        -0.130599
 H         4.079718         1.906855         0.785262
 H         3.047368         1.440722         2.215990
 H         2.880722        -0.938970        -1.207454
 H         3.327472         1.789221        -1.958316
 H         0.809487        -0.761164         1.166058
 H        -0.700594         0.093196         0.657642
 H        -0.087172        -1.149747        -0.415909
