19
Iteration:  1415
 C         1.332006         3.083623         0.273301
 C         1.989651         1.717213        -0.029200
 C         3.033945         1.317215         1.046547
 O         3.690539         0.214057         0.399767
 C         2.716215        -0.066520        -0.635963
 C         2.553706         1.275757        -1.367762
 O         1.128271         0.850746        -1.811777
 C         1.223794         0.436597        -0.425865
 C         0.004479        -0.251228         0.161696
 H         0.712518         2.973910         1.193240
 H         2.019705         3.876586         0.346243
 H         0.727157         3.389112        -0.524983
 H         3.650907         2.124650         1.221251
 H         2.571123         1.022456         2.048436
 H         2.850346        -1.057070        -0.993650
 H         3.089638         1.849073        -2.062496
 H         0.143164        -0.539160         1.216990
 H        -0.833828         0.508627         0.119366
 H        -0.189937        -1.156655        -0.431913
