19
Iteration:  3245charge 0 multiplicity 1
 C         1.334308         3.043131         0.254535
 C         2.051942         1.775728        -0.025560
 C         3.091229         1.382123         1.080161
 O         3.562810         0.107552         0.484796
 C         2.743968        -0.090074        -0.657131
 C         2.512993         1.333577        -1.358822
 O         1.124452         0.986320        -1.824518
 C         1.210031         0.403420        -0.469323
 C         0.033412        -0.327832         0.131862
 H         0.760114         3.120871         1.252037
 H         2.121060         3.724930         0.213352
 H         0.548521         3.256758        -0.575918
 H         4.054145         1.881784         1.290113
 H         2.475854         1.179480         1.994171
 H         2.944277        -0.950216        -1.220197
 H         3.215110         1.855902        -2.048333
 H         0.335390        -0.635675         1.178012
 H        -0.880966         0.326565         0.144236
 H        -0.223248        -1.318645        -0.443665
