19
Iteration:   536charge 0 multiplicity 1
 C         1.259282         3.038550         0.372427
 C         2.027399         1.811772        -0.020938
 C         3.126060         1.316515         0.910196
 O         3.370893        -0.057695         0.509675
 C         2.662898        -0.061168        -0.693515
 C         2.484993         1.461288        -1.402120
 O         1.214920         0.980394        -1.850054
 C         1.302443         0.479678        -0.441195
 C         0.222539        -0.302258         0.223278
 H         0.700805         2.737996         1.279220
 H         1.810932         4.062704         0.505182
 H         0.474583         3.213584        -0.406220
 H         4.154535         1.705672         0.904470
 H         2.679690         1.505606         2.015496
 H         2.855567        -1.050175        -1.332703
 H         3.095018         1.915036        -2.200668
 H         0.587985        -0.522332         1.303836
 H        -0.759462         0.177408         0.087507
 H         0.077208        -1.259499        -0.271484
