19
Iteration:    92charge 0 multiplicity 1
 C         1.166363         2.984640         0.190530
 C         2.073067         1.792185        -0.000122
 C         3.123818         1.389111         1.020761
 O         3.412996        -0.003993         0.628857
 C         2.746916        -0.019028        -0.726958
 C         2.546069         1.364469        -1.444649
 O         1.118262         0.923895        -1.816246
 C         1.329980         0.479922        -0.410830
 C         0.192754        -0.255015         0.189887
 H         0.633322         2.815793         1.120328
 H         1.695927         3.956337         0.274555
 H         0.432306         3.053292        -0.619795
 H         3.993851         2.015711         0.939276
 H         2.850945         1.475561         2.122692
 H         2.942622        -0.923521        -1.412261
 H         3.190537         1.946796        -2.231319
 H         0.464550        -0.886444         1.039095
 H        -0.762509         0.239016         0.397066
 H        -0.011086        -1.065700        -0.630135
