19
Iteration:  2198
 C         1.255092         3.072052         0.279142
 C         2.047794         1.810068        -0.021778
 C         3.153048         1.459889         0.953068
 O         3.390776         0.010016         0.514378
 C         2.667344        -0.067942        -0.647006
 C         2.527059         1.315334        -1.373676
 O         1.218786         0.924173        -1.870260
 C         1.205558         0.459754        -0.411706
 C         0.178597        -0.373941         0.221987
 H         0.655853         3.131898         1.129659
 H         2.026955         3.960280         0.387661
 H         0.467098         3.098150        -0.514256
 H         4.078059         2.075356         0.859748
 H         2.964116         1.526805         2.117537
 H         2.848839        -0.826371        -1.333170
 H         3.076801         1.934400        -2.124788
 H         0.572674        -0.779174         1.161572
 H        -0.791401         0.079404         0.557391
 H         0.010075        -1.072972        -0.729057
