19
Iteration:  1641
 C         1.178132         3.003317         0.249978
 C         2.043438         1.825564         0.017417
 C         3.181228         1.399526         0.900329
 O         3.297232         0.013389         0.604815
 C         2.662689        -0.068339        -0.683248
 C         2.576579         1.309130        -1.368009
 O         1.223871         1.018547        -1.949192
 C         1.264095         0.444871        -0.382096
 C         0.232044        -0.358180         0.241086
 H         1.084856         3.219058         1.344456
 H         1.755108         3.922597        -0.125604
 H         0.256728         2.858387        -0.218929
 H         4.109210         2.071903         0.634106
 H         2.914995         1.586679         1.879245
 H         2.779274        -0.915636        -1.221516
 H         3.337536         1.992548        -1.977939
 H         0.527030        -0.650865         1.336831
 H        -0.710033         0.226457         0.257413
 H         0.022639        -1.313034        -0.285526
