19
Iteration:  1865charge 0 multiplicity 1
 C         1.306367         3.096636         0.128396
 C         1.952760         1.725253         0.045127
 C         2.981842         1.240751         1.130709
 O         3.741820         0.179732         0.382770
 C         2.786012        -0.047496        -0.656214
 C         2.498336         1.320845        -1.371854
 O         1.130114         0.903326        -1.802249
 C         1.270228         0.382180        -0.324507
 C         0.004083        -0.230880         0.182654
 H         0.521908         3.107175         0.905081
 H         2.054643         3.813310         0.282200
 H         0.745075         3.387267        -0.768783
 H         3.690927         2.080798         1.205967
 H         2.554559         1.034513         2.076225
 H         2.933819        -0.926025        -1.322839
 H         3.038494         1.764256        -2.134230
 H         0.082165        -0.601688         1.269778
 H        -0.902888         0.380543        -0.024647
 H        -0.175693        -1.036068        -0.567057
