19
Iteration:  1754
 C         1.212017         3.004858         0.188262
 C         2.030656         1.753458         0.020097
 C         3.070499         1.363177         1.013583
 O         3.576157         0.110949         0.469858
 C         2.706795        -0.020183        -0.664433
 C         2.556183         1.300067        -1.347459
 O         1.121434         0.896307        -1.838768
 C         1.332679         0.390103        -0.387471
 C         0.112376        -0.208121         0.202958
 H         0.418639         2.859103         1.046491
 H         1.740454         3.863525         0.477793
 H         0.647054         3.153666        -0.703094
 H         3.928763         2.071990         1.143314
 H         2.639551         1.151839         1.989322
 H         3.014109        -0.994125        -1.280452
 H         3.173808         1.728282        -2.078611
 H         0.092144        -0.633024         1.195753
 H        -0.557965         0.710336         0.233897
 H        -0.426478        -0.849065        -0.609222
