19
Iteration:  4568
 C         1.293234         3.053839         0.221799
 C         1.939166         1.683432         0.160439
 C         3.092020         1.247183         1.139670
 O         3.624510         0.117569         0.458136
 C         2.761657        -0.019398        -0.760286
 C         2.454420         1.390374        -1.317276
 O         1.184439         0.909694        -1.814835
 C         1.252015         0.398574        -0.479313
 C         0.038366        -0.197896         0.059444
 H         0.498466         3.139347         0.974491
 H         2.073769         3.989780         0.418011
 H         0.783864         3.085209        -0.740244
 H         3.843306         2.062445         1.140809
 H         2.589235         1.122485         2.044332
 H         3.149166        -0.853414        -1.384833
 H         3.167672         1.818957        -1.991771
 H         0.288685        -0.829782         0.887343
 H        -0.674431         0.537328         0.426065
 H        -0.549306        -1.002687        -0.540211
