19
Iteration:  3697
 C         1.140062         2.993062         0.328987
 C         2.005966         1.758286         0.092797
 C         3.186801         1.302418         0.951488
 O         3.507632        -0.012537         0.557277
 C         2.695044        -0.038073        -0.727123
 C         2.542101         1.403720        -1.338031
 O         1.225361         0.933216        -1.870531
 C         1.261082         0.483824        -0.534933
 C         0.075418        -0.196570         0.154916
 H         0.604287         2.974701         1.332229
 H         1.743300         3.848765         0.353593
 H         0.526856         3.001818        -0.585051
 H         4.121891         1.979322         0.729358
 H         3.213033         1.396825         2.116136
 H         2.824881        -0.927518        -1.484221
 H         3.235044         1.824620        -2.122380
 H         0.421470        -0.545647         1.139864
 H        -0.755078         0.516975         0.434799
 H        -0.460391        -1.102430        -0.221540
