19
Iteration:   478charge 0 multiplicity 1
 C         1.277825         3.046886         0.254086
 C         1.986348         1.755453         0.071724
 C         3.147942         1.271472         1.063426
 O         3.641046         0.073276         0.430552
 C         2.811872         0.000826        -0.728895
 C         2.465118         1.417723        -1.393900
 O         1.099228         0.839485        -1.777340
 C         1.301211         0.408033        -0.314590
 C        -0.036125        -0.201528         0.064069
 H         0.739756         2.911005         1.243084
 H         1.904139         3.902946         0.345904
 H         0.509502         3.152959        -0.487115
 H         4.071585         1.948893         1.106946
 H         2.748484         1.098835         2.060412
 H         3.023696        -0.901053        -1.374793
 H         3.041679         1.999756        -2.094945
 H        -0.097776        -1.099113         0.728244
 H        -0.665957         0.580881         0.524970
 H        -0.483993        -0.409009        -0.874087
