19
Iteration:   203charge 0 multiplicity 1
 C         1.382137         3.139840         0.233475
 C         2.002788         1.758131         0.058194
 C         2.984793         1.346876         1.079892
 O         3.687718         0.208149         0.396158
 C         2.755610        -0.048627        -0.666177
 C         2.488488         1.245740        -1.294199
 O         1.134482         0.899904        -1.812727
 C         1.169599         0.423322        -0.445616
 C        -0.015507        -0.403584         0.122873
 H         0.540276         3.285947         0.911188
 H         2.118509         3.837331         0.543183
 H         1.061682         3.432351        -0.852990
 H         3.729565         2.076822         1.089315
 H         2.707474         1.062981         2.117647
 H         2.940987        -0.947715        -1.375752
 H         3.165570         1.945334        -1.916447
 H         0.289536        -0.755583         1.134180
 H        -0.861595         0.241741         0.349156
 H         0.018450        -1.266961        -0.577371
