19
Iteration:  1184charge 0 multiplicity 1
 C         1.139262         3.098317         0.227642
 C         2.013098         1.806345        -0.047427
 C         2.993332         1.258110         1.042333
 O         3.579428         0.083513         0.380544
 C         2.771990        -0.087352        -0.713276
 C         2.535150         1.268066        -1.375439
 O         1.177240         0.920132        -1.824156
 C         1.271809         0.400402        -0.460621
 C         0.185910        -0.146212         0.343263
 H         0.542804         2.999402         1.177496
 H         1.839606         3.985615         0.282805
 H         0.545347         3.402929        -0.551937
 H         3.651290         2.074871         1.489210
 H         2.412685         0.855760         1.941975
 H         3.087047        -1.058443        -1.419347
 H         3.270687         1.736027        -2.000472
 H         0.600409        -0.628139         1.335339
 H        -0.572975         0.551830         0.659041
 H        -0.325987        -0.970626        -0.205170
