19
Iteration:  4713
 C         1.312793         3.126214         0.228867
 C         1.986412         1.767801         0.095951
 C         3.062076         1.265413         1.114753
 O         3.610403         0.098581         0.452880
 C         2.776225        -0.001724        -0.694150
 C         2.481737         1.332169        -1.393427
 O         1.144572         0.957272        -1.821140
 C         1.209929         0.414407        -0.357622
 C         0.042885        -0.347929         0.028663
 H         0.659246         3.086813         1.157951
 H         2.135298         3.915360         0.241233
 H         0.852212         3.241339        -0.763774
 H         3.930067         1.932914         1.393187
 H         2.514082         1.085799         2.025367
 H         3.019332        -0.952348        -1.258806
 H         3.269275         1.856709        -2.051158
 H         0.233706        -0.767083         1.090907
 H        -0.760907         0.430303         0.128976
 H        -0.315855        -1.216871        -0.529190
