19
Iteration:  1133
 C         1.300781         3.116143         0.182621
 C         1.969184         1.772245         0.079824
 C         3.062570         1.354588         0.955256
 O         3.651997         0.112394         0.414882
 C         2.782824        -0.116281        -0.667034
 C         2.502179         1.344445        -1.309969
 O         1.148163         0.924088        -1.744677
 C         1.247602         0.384603        -0.408650
 C         0.005064        -0.327055         0.134776
 H         0.928377         3.334397         1.239537
 H         1.996943         3.905985        -0.012567
 H         0.439443         3.173684        -0.550642
 H         3.759314         2.258341         0.988928
 H         2.735297         1.178776         2.013892
 H         2.904290        -1.085584        -1.185681
 H         3.033730         1.907451        -2.054609
 H         0.219881        -1.111524         0.828734
 H        -0.471121         0.457781         0.744756
 H        -0.704823        -0.769235        -0.518428
