19
Iteration:  4276charge 0 multiplicity 1
 C         1.233044         3.052917         0.309469
 C         2.030217         1.776414         0.044138
 C         3.052089         1.272031         1.064739
 O         3.605804         0.116350         0.431133
 C         2.777676        -0.034336        -0.711338
 C         2.552582         1.300855        -1.379595
 O         1.141562         0.896990        -1.817680
 C         1.229029         0.424846        -0.396117
 C         0.055695        -0.233669         0.083637
 H         0.377337         3.001931         1.100355
 H         1.828986         3.929257         0.611969
 H         0.751462         3.444712        -0.586784
 H         3.803866         2.010366         1.245493
 H         2.599021         1.073306         2.013732
 H         2.911406        -0.877800        -1.426362
 H         3.466667         1.757223        -1.836705
 H         0.242552        -0.428781         1.092110
 H        -0.729307         0.502470         0.100785
 H        -0.289150        -1.157185        -0.493094
