19
Iteration:  4768charge 0 multiplicity 1
 C         1.135632         3.007675         0.341004
 C         2.047120         1.816409        -0.001504
 C         3.124571         1.309456         1.086941
 O         3.417917         0.002480         0.598428
 C         2.700808        -0.107427        -0.810042
 C         2.543398         1.383458        -1.494883
 O         1.231019         0.950440        -1.868584
 C         1.335570         0.471570        -0.454167
 C         0.185326        -0.200557         0.172106
 H         0.570908         2.769410         1.319403
 H         1.698097         3.944816         0.332950
 H         0.269594         2.955390        -0.369638
 H         4.062240         1.957831         1.203358
 H         2.634237         1.435476         2.019321
 H         3.026866        -1.083769        -1.160144
 H         3.161539         1.963283        -2.315864
 H         0.413687        -0.775729         1.182274
 H        -0.706787         0.449038         0.363107
 H        -0.298315        -0.849282        -0.509773
