19
Iteration:  3049
 C         1.263743         3.148490         0.232480
 C         2.058179         1.856272         0.046535
 C         3.107587         1.335911         1.047085
 O         3.494953         0.077778         0.444800
 C         2.729987        -0.039644        -0.700600
 C         2.505313         1.300972        -1.435867
 O         1.153195         0.875311        -1.805463
 C         1.332029         0.394892        -0.358651
 C         0.074778        -0.327101         0.143843
 H         0.602142         2.930621         1.125663
 H         1.892857         4.015679         0.444098
 H         0.571171         3.364653        -0.706517
 H         3.986033         1.872712         1.289272
 H         2.679019         1.067188         2.040613
 H         2.860089        -0.970422        -1.100474
 H         3.171727         1.834933        -2.129160
 H         0.099288        -0.667175         1.209455
 H        -0.700627         0.509387         0.175127
 H        -0.307490        -1.065195        -0.459522
