19
Iteration:  3850
 C         1.216937         3.076204         0.320816
 C         2.007527         1.761081         0.098889
 C         3.105137         1.310717         1.046088
 O         3.516805        -0.024348         0.450999
 C         2.761728        -0.020513        -0.691867
 C         2.530125         1.364524        -1.378768
 O         1.203915         0.921767        -1.894808
 C         1.261465         0.529713        -0.467325
 C         0.101238        -0.269358         0.189885
 H         0.587138         2.914935         1.285557
 H         1.874532         3.891586         0.233844
 H         0.482031         3.128157        -0.483979
 H         3.811510         2.061426         0.855962
 H         2.768032         1.295694         2.059306
 H         2.970559        -0.995249        -1.119105
 H         3.078883         1.796681        -2.279357
 H         0.241970        -0.573549         1.169505
 H        -0.775917         0.367702         0.223409
 H        -0.294322        -1.095313        -0.439497
