19
Iteration:  3098charge 0 multiplicity 1
 C         1.377505         3.130033         0.240199
 C         1.965635         1.710523         0.033679
 C         3.041798         1.376296         1.110903
 O         3.579492         0.130449         0.440530
 C         2.711145        -0.065770        -0.745888
 C         2.468213         1.344320        -1.358127
 O         1.189606         0.959154        -1.846745
 C         1.263668         0.302049        -0.435514
 C         0.006783        -0.310587         0.217875
 H         0.808110         3.304413         1.163825
 H         2.247714         3.942862         0.066990
 H         0.649808         3.195274        -0.543217
 H         3.956658         2.048572         1.301435
 H         2.636950         1.170630         2.087944
 H         3.297709        -0.941103        -1.372542
 H         3.125338         1.840065        -2.097271
 H         0.211791        -0.512990         1.313556
 H        -0.936729         0.214756        -0.025864
 H        -0.240466        -1.357244        -0.335431
