19
Iteration:  2356
 C         1.302814         3.113278         0.225318
 C         2.036493         1.761491         0.001071
 C         3.133670         1.347497         0.914358
 O         3.453649         0.024809         0.565016
 C         2.643909        -0.017274        -0.667179
 C         2.478191         1.370025        -1.413346
 O         1.187171         0.948900        -1.819151
 C         1.270989         0.467059        -0.403444
 C         0.170523        -0.389120         0.198934
 H         0.683491         2.971148         1.193423
 H         1.911021         4.010369         0.179613
 H         0.514518         3.198094        -0.506904
 H         4.015496         2.038400         0.952965
 H         2.650606         1.378532         1.952354
 H         2.870395        -0.994696        -1.298034
 H         3.151881         1.963210        -2.113859
 H         0.439446        -0.784589         1.273509
 H        -0.739322         0.261689         0.270226
 H        -0.109599        -1.276476        -0.286339
