19
Iteration:  3534charge 0 multiplicity 1
 C         1.189713         2.978229         0.261888
 C         1.943415         1.680936         0.036729
 C         3.187250         1.363561         1.002636
 O         3.526841         0.056336         0.514331
 C         2.725538        -0.105947        -0.674611
 C         2.493715         1.330618        -1.398823
 O         1.235521         0.983668        -1.816736
 C         1.276502         0.423666        -0.487492
 C         0.052173        -0.164009         0.172167
 H         0.668848         2.717655         1.228297
 H         1.787508         3.948480         0.627425
 H         0.513826         3.310363        -0.511299
 H         3.909281         2.078715         0.702746
 H         3.230899         1.373334         2.064824
 H         2.982147        -1.059724        -1.178979
 H         3.070879         1.990186        -2.017863
 H         0.296424        -0.685580         1.119291
 H        -0.727115         0.658060         0.254185
 H        -0.268775        -0.879535        -0.582067
