19
Iteration:  2730
 C         1.303928         3.070172         0.252326
 C         2.056232         1.794857        -0.048375
 C         3.113990         1.446259         1.053724
 O         3.479678        -0.033147         0.568959
 C         2.741116        -0.067618        -0.752625
 C         2.508191         1.343144        -1.436375
 O         1.081346         1.011905        -1.853728
 C         1.257358         0.442965        -0.400097
 C         0.127767        -0.347473         0.228872
 H         0.682808         3.031155         1.152508
 H         1.818306         3.943390         0.246652
 H         0.497965         3.012352        -0.522059
 H         4.009876         2.046905         0.961744
 H         2.841415         1.401585         2.126620
 H         3.112259        -1.101123        -1.293883
 H         3.308391         1.892821        -2.038713
 H         0.304717        -0.632103         1.231999
 H        -0.825764         0.092375         0.117820
 H         0.046720        -1.351536        -0.376811
