19
Iteration:  1073charge 0 multiplicity 1
 C         1.204537         3.030321         0.267864
 C         2.052823         1.803891        -0.066077
 C         3.132613         1.405693         0.883994
 O         3.424310        -0.037435         0.584190
 C         2.765344        -0.088803        -0.692071
 C         2.525382         1.389901        -1.391031
 O         1.113380         0.974306        -1.819355
 C         1.299403         0.492421        -0.419877
 C         0.143392        -0.339867         0.251712
 H         0.792146         2.801228         1.222632
 H         2.006710         3.823631         0.359037
 H         0.459140         3.476914        -0.416923
 H         4.035524         2.086923         0.752512
 H         2.862482         1.349756         1.953595
 H         3.053592        -1.006598        -1.269446
 H         3.161169         1.862561        -2.237263
 H         0.519245        -0.542531         1.249938
 H        -0.801544         0.215310         0.395757
 H        -0.099113        -1.200563        -0.441386
