19
Iteration:  3452
 C         1.346704         3.077635         0.235224
 C         2.033360         1.741978         0.067431
 C         3.024070         1.298972         1.000406
 O         3.474080         0.038954         0.512006
 C         2.776257        -0.024926        -0.757404
 C         2.502526         1.400938        -1.388809
 O         1.166958         1.014684        -1.859714
 C         1.222579         0.415652        -0.482479
 C         0.134035        -0.347131         0.270320
 H         0.803044         3.350980         1.201953
 H         2.069015         3.810275        -0.009588
 H         0.451695         3.095937        -0.519603
 H         3.946273         1.947025         1.236099
 H         2.429655         1.149137         1.951064
 H         2.963588        -1.077364        -1.108929
 H         3.252489         2.017823        -1.997114
 H         0.459845        -0.514979         1.313854
 H        -0.860041         0.148630         0.253044
 H        -0.166145        -1.359958        -0.278746
