19
Iteration:  2609charge 0 multiplicity 1
 C         1.238724         2.960337         0.306996
 C         2.041084         1.791380         0.053619
 C         3.221883         1.391667         0.892548
 O         3.439861         0.037517         0.513581
 C         2.659276        -0.010291        -0.625801
 C         2.514151         1.364584        -1.393403
 O         1.193770         0.923643        -1.858673
 C         1.248057         0.451958        -0.402268
 C         0.118949        -0.263994         0.174759
 H         0.504119         2.869556         1.169186
 H         1.749900         3.884475         0.335231
 H         0.569573         2.994745        -0.615532
 H         4.098216         1.975605         0.825519
 H         2.828147         1.501347         1.917438
 H         2.936335        -0.975922        -1.211283
 H         3.240215         1.644603        -2.138356
 H         0.446758        -0.829530         1.017919
 H        -0.589695         0.469404         0.443184
 H        -0.347493        -0.958877        -0.478751
