19
Iteration:  2031
 C         1.275402         3.097399         0.245853
 C         1.997077         1.760963         0.056561
 C         3.114989         1.354838         1.038896
 O         3.547720         0.153467         0.470237
 C         2.683921        -0.065856        -0.652377
 C         2.539959         1.274089        -1.338432
 O         1.138549         0.925458        -1.868192
 C         1.213248         0.461435        -0.438302
 C         0.125258        -0.374204         0.154965
 H         0.514721         3.217164         0.998280
 H         2.028945         3.917640         0.324948
 H         0.690132         3.399643        -0.755307
 H         3.951697         2.147618         0.905745
 H         2.886494         1.206825         2.127628
 H         3.046225        -0.895957        -1.258592
 H         3.302982         1.563047        -2.086920
 H         0.384358        -0.823115         1.236012
 H        -0.801505         0.215792         0.379704
 H        -0.304009        -1.133690        -0.491301
