19
Iteration:  1013charge 0 multiplicity 1
 C         1.258355         3.001768         0.172091
 C         2.062000         1.805428         0.012280
 C         2.985465         1.171010         1.102238
 O         3.720503         0.138050         0.374821
 C         2.885870        -0.026473        -0.744776
 C         2.440518         1.365831        -1.478810
 O         1.083092         0.908675        -1.719117
 C         1.280349         0.415037        -0.381685
 C        -0.020804        -0.150877         0.271267
 H         0.670737         3.082002         1.127322
 H         1.887293         3.836570         0.335692
 H         0.646825         3.124625        -0.666571
 H         3.655340         1.845162         1.614609
 H         2.439940         0.511195         1.866506
 H         3.233296        -0.930806        -1.331555
 H         2.973706         1.718981        -2.322384
 H        -0.034078        -0.154998         1.422674
 H        -0.727296         0.590035        -0.167897
 H        -0.215763        -1.167278         0.015149
