19
Iteration:   852charge 0 multiplicity 1
 C         1.240103         3.026814         0.222309
 C         2.094659         1.741835         0.018131
 C         3.046494         1.262351         1.126703
 O         3.591747         0.092631         0.374133
 C         2.757832        -0.043985        -0.759074
 C         2.515249         1.340538        -1.428095
 O         1.087497         0.971691        -1.716122
 C         1.325436         0.340982        -0.429642
 C         0.064575        -0.167462         0.205494
 H         0.694538         2.870511         1.164872
 H         1.812896         3.988504         0.368154
 H         0.490226         3.069169        -0.664942
 H         3.919008         1.912650         1.368915
 H         2.443394         1.081654         1.989029
 H         3.067711        -0.869525        -1.264259
 H         2.920359         2.003302        -2.269788
 H         0.247766        -0.611094         1.128983
 H        -0.578879         0.720887         0.336598
 H        -0.331486        -1.028850        -0.339014
