19
Iteration:  1426charge 0 multiplicity 1
 C         1.393291         3.032058         0.213790
 C         1.961084         1.728144         0.050242
 C         3.010495         1.304591         1.122696
 O         3.706218         0.296208         0.374386
 C         2.708532        -0.091185        -0.646361
 C         2.532495         1.303574        -1.396840
 O         1.099477         0.850906        -1.870647
 C         1.208949         0.416170        -0.387789
 C         0.011933        -0.237396         0.173443
 H         0.985874         3.160180         1.262645
 H         2.221652         3.663039         0.186971
 H         0.609234         3.249616        -0.443168
 H         3.675560         1.998693         1.484997
 H         2.448379         0.811060         2.009720
 H         3.065919        -0.884499        -1.229226
 H         3.344801         1.591405        -1.968079
 H         0.099087        -0.419040         1.240414
 H        -0.927340         0.373355        -0.000583
 H        -0.252263        -1.183187        -0.342042
