19
Iteration:  3126
 C         1.212613         3.107384         0.230382
 C         1.999601         1.773418         0.020204
 C         3.114843         1.249903         1.109180
 O         3.458072         0.043900         0.496417
 C         2.708239        -0.067958        -0.730878
 C         2.611929         1.369828        -1.433383
 O         1.141160         0.883974        -1.830138
 C         1.280008         0.526557        -0.446062
 C         0.176001        -0.248791         0.199767
 H         0.777388         3.204043         1.215132
 H         1.805150         3.953029         0.065193
 H         0.266156         3.097490        -0.434140
 H         4.000026         1.853041         1.012815
 H         2.897934         1.148246         2.227207
 H         2.891384        -1.000300        -1.089692
 H         3.022376         2.054927        -2.200305
 H         0.402537        -0.645551         1.207186
 H        -0.804298         0.245766         0.105532
 H        -0.004734        -1.101257        -0.342779
