19
Iteration:  4019
 C         1.307163         3.091985         0.217098
 C         2.010355         1.723422         0.022217
 C         2.961656         1.191872         1.093023
 O         3.599371         0.132259         0.407001
 C         2.776378        -0.053342        -0.662963
 C         2.459168         1.397857        -1.390981
 O         1.178155         0.959412        -1.802216
 C         1.233653         0.399078        -0.441637
 C         0.076587        -0.265324         0.191254
 H         0.983474         3.012132         1.254607
 H         2.247842         3.783714        -0.026754
 H         0.482013         3.255415        -0.571847
 H         3.691733         1.969268         1.382219
 H         2.406668         0.982385         2.050552
 H         3.222846        -0.923346        -1.298468
 H         3.123281         1.904163        -2.014551
 H         0.453439        -0.629871         1.205703
 H        -0.657121         0.546140         0.292725
 H        -0.214421        -1.011919        -0.470943
