19
Iteration:  4936charge 0 multiplicity 1
 C         1.183712         2.965983         0.247801
 C         2.082142         1.774204         0.016562
 C         3.048285         1.298273         1.065226
 O         3.546454         0.023609         0.518683
 C         2.690991        -0.044383        -0.796968
 C         2.589086         1.396996        -1.396491
 O         1.166087         0.965261        -1.789009
 C         1.236069         0.441221        -0.439440
 C         0.131673        -0.187640         0.189415
 H         0.622303         2.895819         1.194582
 H         1.711733         3.925071         0.335199
 H         0.392765         2.890217        -0.591688
 H         4.008345         1.880935         1.156352
 H         2.521624         1.215458         2.004024
 H         3.049184        -0.970668        -1.339464
 H         3.239116         1.902306        -2.094890
 H         0.506591        -0.686883         1.035168
 H        -0.680120         0.508581         0.433588
 H        -0.232768        -0.936851        -0.621075
