19
Iteration:  2112
 C         1.175792         3.032145         0.169575
 C         1.986484         1.698510         0.007795
 C         3.025031         1.254356         1.010279
 O         3.641989         0.111027         0.410304
 C         2.823115        -0.024495        -0.696265
 C         2.564967         1.293195        -1.338206
 O         1.209583         0.939135        -1.860768
 C         1.225825         0.451308        -0.370445
 C         0.048880        -0.170367         0.272321
 H         0.678947         2.921660         1.163719
 H         1.544544         4.174136         0.242870
 H         0.419481         2.955931        -0.522380
 H         3.694543         2.082406         1.166545
 H         2.633373         0.895096         2.032155
 H         2.763200        -0.906008        -1.251300
 H         3.322758         1.808266        -1.930800
 H         0.229494        -0.305720         1.368511
 H        -0.850234         0.586095         0.247380
 H        -0.171234        -1.250004        -0.158698
