19
Iteration:   682charge 0 multiplicity 1
 C         1.222248         3.006303         0.382732
 C         2.058167         1.802957        -0.041260
 C         3.125441         1.333033         0.957118
 O         3.466173        -0.006842         0.469292
 C         2.631569        -0.014679        -0.674395
 C         2.516827         1.315128        -1.412664
 O         1.230110         0.960183        -1.904354
 C         1.223248         0.538315        -0.407031
 C         0.201384        -0.271822         0.238396
 H         0.810457         2.679107         1.381187
 H         1.698072         4.011369         0.486408
 H         0.314341         3.030486        -0.360250
 H         4.031215         1.866037         0.903029
 H         2.671920         1.355051         2.039923
 H         2.725820        -0.924306        -1.150210
 H         3.237484         1.807593        -2.084443
 H         0.734033        -0.990998         0.815599
 H        -0.533608         0.371365         0.756442
 H        -0.494582        -0.787333        -0.529316
