19
Iteration:  1374charge 0 multiplicity 1
 C         1.173283         2.961120         0.206427
 C         2.044417         1.821507         0.045884
 C         3.230138         1.381024         0.898282
 O         3.379466         0.021369         0.602680
 C         2.726922        -0.058812        -0.657535
 C         2.535965         1.368786        -1.390543
 O         1.161159         0.916231        -1.833971
 C         1.260670         0.448281        -0.467851
 C         0.194252        -0.242232         0.216604
 H         0.423976         2.590377         0.836725
 H         1.636056         3.761057         0.710920
 H         0.596322         3.288613        -0.762249
 H         4.257285         1.887498         0.552850
 H         3.129271         1.502402         1.923068
 H         2.752215        -0.933981        -1.208187
 H         3.154107         2.121078        -2.004695
 H         0.507209        -0.661149         1.099955
 H        -0.634362         0.413266         0.568106
 H        -0.381570        -0.948653        -0.409181
