19
Iteration:  4999
 C         1.269898         3.096313         0.267339
 C         1.912537         1.691763         0.016864
 C         3.090189         1.228922         1.019706
 O         3.598907         0.037303         0.509174
 C         2.791817        -0.029836        -0.664181
 C         2.419323         1.404822        -1.383404
 O         1.178745         0.913082        -1.809461
 C         1.310732         0.407931        -0.463917
 C         0.076063        -0.182905         0.134485
 H         0.542280         2.932652         1.102254
 H         2.069284         3.727018         0.522137
 H         0.612559         3.572070        -0.547191
 H         3.982764         1.928694         1.142882
 H         2.639295         1.321805         2.057227
 H         3.051832        -0.690165        -1.506082
 H         3.051866         2.093806        -2.133645
 H         0.338017        -0.789404         1.095937
 H        -0.847610         0.397571         0.309131
 H        -0.245915        -0.929801        -0.541283
