19
Iteration:   315charge 0 multiplicity 1
 C         1.287168         3.091407         0.267987
 C         2.015155         1.745101         0.094926
 C         3.009004         1.213721         1.170672
 O         3.648697         0.171174         0.363078
 C         2.845444        -0.012076        -0.761530
 C         2.454674         1.347191        -1.357919
 O         1.134965         0.817793        -1.814906
 C         1.316705         0.302393        -0.423390
 C         0.016500        -0.096977         0.098347
 H         0.772130         3.367943         1.259011
 H         1.897339         3.934304        -0.097895
 H         0.406066         2.931789        -0.453505
 H         3.633927         1.936717         1.566502
 H         2.538450         0.533093         2.024405
 H         3.061305        -0.814939        -1.338416
 H         2.862659         1.971527        -2.094154
 H         0.095018        -0.421812         1.337654
 H        -0.704078         0.800295         0.188980
 H        -0.346732        -0.974279        -0.418557
