19
Iteration:  1507
 C         1.172115         2.986391         0.273050
 C         2.046019         1.772841        -0.078051
 C         3.136680         1.465300         0.880328
 O         3.426978        -0.030989         0.611549
 C         2.663326        -0.079598        -0.662472
 C         2.536435         1.257490        -1.349614
 O         1.211894         1.061315        -1.872891
 C         1.212046         0.520301        -0.442994
 C         0.199904        -0.322250         0.257488
 H         0.669973         2.635279         1.099361
 H         1.582029         3.973457         0.356573
 H         0.405651         3.173462        -0.536382
 H         4.158190         1.980081         0.644706
 H         2.911951         1.538097         1.883842
 H         2.951049        -1.043039        -1.229411
 H         3.484510         1.638123        -2.006715
 H         0.656614        -0.494893         1.282088
 H        -0.648540         0.353213         0.312799
 H         0.082305        -1.261422        -0.337917
