19
Iteration:  4658
 C         1.240483         3.064882         0.256015
 C         1.971223         1.736285         0.059117
 C         3.061776         1.337478         1.088617
 O         3.509827         0.002628         0.473007
 C         2.767075        -0.068681        -0.677673
 C         2.602255         1.426779        -1.328491
 O         1.189373         1.005304        -1.892729
 C         1.176574         0.412787        -0.533428
 C         0.085024        -0.303361         0.180829
 H         0.758916         3.054377         1.304025
 H         1.983942         3.962682         0.311587
 H         0.515229         3.103130        -0.534569
 H         3.999241         1.912285         0.905588
 H         2.792156         1.221842         2.100567
 H         3.068881        -1.001331        -1.297858
 H         3.269026         2.022056        -1.987080
 H         0.512643        -0.444470         1.200680
 H        -0.864479         0.252430         0.263524
 H         0.000748        -1.303040        -0.276466
