19
Iteration:  3288charge 0 multiplicity 1
 C         1.233609         3.077531         0.195512
 C         2.039061         1.792924         0.050464
 C         3.190022         1.322991         1.007711
 O         3.436806        -0.069934         0.573848
 C         2.649038        -0.039691        -0.708869
 C         2.495301         1.373478        -1.343526
 O         1.198693         0.985506        -1.863785
 C         1.239941         0.466382        -0.469848
 C         0.186857        -0.302798         0.177257
 H         0.792763         3.084183         1.282820
 H         1.801950         3.966985         0.093336
 H         0.269698         3.051266        -0.457938
 H         4.002523         2.056952         1.058547
 H         2.730995         1.236952         1.957559
 H         2.931184        -0.831290        -1.293886
 H         3.046205         2.046608        -2.033770
 H         0.692574        -0.260348         1.120970
 H        -0.766683         0.212597         0.124475
 H         0.004075        -1.326526        -0.298282
