19
Iteration:  2876
 C         1.265604         2.976531         0.238987
 C         2.088038         1.766502         0.010921
 C         3.142807         1.436786         1.013324
 O         3.422553        -0.003241         0.539855
 C         2.718578        -0.107154        -0.610120
 C         2.436757         1.365642        -1.461927
 O         1.177555         1.005780        -1.849746
 C         1.267105         0.504284        -0.448289
 C         0.183256        -0.337897         0.195031
 H         0.744485         2.969180         1.118075
 H         1.799038         3.992970         0.219893
 H         0.494961         2.954653        -0.621731
 H         4.094861         2.039472         0.868465
 H         2.766768         1.309242         2.003970
 H         2.885471        -0.970606        -1.199474
 H         3.051504         2.007100        -2.126408
 H         0.262433        -0.413116         1.332548
 H        -0.815344         0.230700         0.203719
 H        -0.031196        -1.236424        -0.276724
