19
Iteration:  3063charge 0 multiplicity 1
 C         1.294652         3.135396         0.255089
 C         2.038707         1.788755         0.003935
 C         3.017581         1.322122         1.074222
 O         3.643300         0.116362         0.408435
 C         2.683249        -0.135429        -0.674825
 C         2.482950         1.303501        -1.358213
 O         1.160275         0.871726        -1.786179
 C         1.252114         0.437827        -0.351539
 C         0.074241        -0.255612         0.127312
 H         0.666566         3.195394         1.102267
 H         2.118916         3.988073         0.344633
 H         0.710917         3.460189        -0.693040
 H         3.781733         2.072807         1.199731
 H         2.478841         1.143713         1.974800
 H         2.888914        -0.969922        -1.381088
 H         2.999020         1.830922        -2.175492
 H         0.129509        -0.740569         1.197079
 H        -0.946070         0.244219        -0.029892
 H         0.277029        -1.015356        -0.584700
