19
Iteration:  4273
 C         1.195922         3.038547         0.318127
 C         2.057619         1.762644         0.047595
 C         3.057033         1.283417         1.053647
 O         3.616140         0.114382         0.461749
 C         2.766256        -0.061421        -0.719848
 C         2.553717         1.295813        -1.403719
 O         1.147942         0.899665        -1.826435
 C         1.210704         0.445682        -0.384351
 C         0.073089        -0.212758         0.072890
 H         0.479483         2.971109         1.124753
 H         1.812594         3.971304         0.651442
 H         0.791256         3.531736        -0.568570
 H         3.799268         2.078980         1.202767
 H         2.595433         1.006154         2.021324
 H         2.848828        -0.836778        -1.406814
 H         3.380361         1.771449        -1.911803
 H         0.244544        -0.478548         1.122513
 H        -0.816509         0.463416         0.128707
 H        -0.247163        -1.149514        -0.525296
