19
Iteration:  4191charge 0 multiplicity 1
 C         1.215793         3.085339         0.186439
 C         2.060421         1.714292         0.035351
 C         3.019353         1.331598         1.145081
 O         3.526070         0.031677         0.400109
 C         2.748035        -0.028423        -0.741615
 C         2.530249         1.356380        -1.345212
 O         1.188636         0.986535        -1.806479
 C         1.269917         0.468719        -0.453457
 C         0.102200        -0.289986         0.209096
 H         0.852808         3.141298         1.240608
 H         1.775471         3.911399        -0.069535
 H         0.340378         2.961523        -0.417594
 H         3.989327         1.854426         1.371316
 H         2.627498         0.962694         2.133468
 H         2.940910        -0.969663        -1.392125
 H         3.334746         1.885582        -1.915321
 H         0.346438        -0.798723         1.157415
 H        -0.768677         0.348010         0.314588
 H        -0.143946        -1.058081        -0.533927
