19
Iteration:  2339
 C         1.231150         3.074869         0.284431
 C         1.995134         1.837794         0.014395
 C         3.171575         1.427644         0.993435
 O         3.410059         0.000300         0.487814
 C         2.707088        -0.058763        -0.667237
 C         2.586592         1.293718        -1.329109
 O         1.134816         0.906562        -1.891975
 C         1.246203         0.467498        -0.407760
 C         0.156080        -0.311659         0.197256
 H         0.729163         3.134861         1.195875
 H         2.025544         3.891113         0.352787
 H         0.393517         3.303119        -0.479152
 H         3.996517         2.050737         0.604234
 H         3.226347         1.493805         2.042455
 H         2.849384        -0.977331        -1.242644
 H         3.193140         1.733676        -2.116717
 H         0.469908        -0.551796         1.180565
 H        -0.856189         0.032559         0.238896
 H         0.201558        -1.215158        -0.515051
