19
Iteration:  4647charge 0 multiplicity 1
 C         1.222297         3.003350         0.314317
 C         1.975916         1.736229         0.029290
 C         3.053998         1.340131         0.968564
 O         3.447111        -0.056230         0.518369
 C         2.778081        -0.011880        -0.724678
 C         2.542412         1.373581        -1.307967
 O         1.229846         0.999802        -1.892523
 C         1.304380         0.475580        -0.501742
 C         0.124765        -0.281270         0.199102
 H         0.609915         3.042837         1.288405
 H         1.825715         4.009153         0.122158
 H         0.460141         3.225050        -0.408749
 H         3.926930         2.051576         0.979530
 H         2.717337         1.353199         1.954360
 H         3.071271        -0.954875        -1.356013
 H         3.241541         2.070595        -1.806258
 H         0.441912        -0.412986         1.254641
 H        -0.796782         0.332628         0.229492
 H        -0.269714        -1.267719        -0.179406
