19
Iteration:  2866
 C         1.208706         2.984406         0.224499
 C         2.005738         1.746067         0.037439
 C         3.141587         1.319972         1.008046
 O         3.438334         0.062952         0.521679
 C         2.668457        -0.088713        -0.669656
 C         2.549690         1.392172        -1.434960
 O         1.179001         0.998375        -1.897072
 C         1.269795         0.468495        -0.398831
 C         0.178683        -0.279060         0.244981
 H         0.699416         3.033815         1.165274
 H         1.949167         3.880450         0.081172
 H         0.432264         3.002266        -0.602236
 H         4.084071         2.018844         0.936976
 H         2.951180         1.299828         2.084855
 H         2.866551        -1.039034        -0.969143
 H         3.132174         1.894498        -2.204714
 H         0.542581        -0.579053         1.297927
 H        -0.748764         0.367072         0.128883
 H         0.018083        -1.197573        -0.233855
