19
Iteration:  4913
 C         1.222129         3.105075         0.287517
 C         1.949940         1.730184         0.084823
 C         3.122929         1.352537         1.002571
 O         3.402125        -0.031721         0.561106
 C         2.799728        -0.001472        -0.782369
 C         2.517500         1.398740        -1.418171
 O         1.219601         0.979043        -1.890417
 C         1.282971         0.378074        -0.425353
 C         0.144224        -0.300379         0.186587
 H         0.826147         3.194197         1.321280
 H         1.922291         3.914434         0.223510
 H         0.340991         2.962323        -0.441487
 H         4.135809         1.865507         0.880413
 H         2.830503         1.182616         2.019701
 H         2.938238        -0.985514        -1.309992
 H         3.166770         2.184731        -1.930012
 H         0.412779        -0.588246         1.232200
 H        -0.621175         0.491561         0.266898
 H        -0.295092        -1.153892        -0.404250
