19
Iteration:  2376
 C         1.306368         3.094926         0.159888
 C         2.026948         1.788610         0.031022
 C         3.001471         1.381463         1.106038
 O         3.505394         0.053467         0.444645
 C         2.787590        -0.061474        -0.697940
 C         2.505013         1.323327        -1.438722
 O         1.069769         0.958192        -1.774439
 C         1.279274         0.422055        -0.444077
 C         0.143822        -0.322408         0.221834
 H         0.847332         3.067817         1.225519
 H         2.061457         4.015670        -0.000828
 H         0.677689         3.249961        -0.676118
 H         3.977675         1.805913         1.163505
 H         2.682517         1.043159         2.143881
 H         3.083035        -0.961904        -1.181103
 H         3.254665         1.880638        -2.018582
 H         0.556230        -0.830916         1.124964
 H        -0.699922         0.398388         0.411337
 H        -0.176145        -1.190162        -0.355699
