19
Iteration:  1209
 C         1.197681         2.904156         0.269945
 C         2.022554         1.730085         0.017615
 C         3.145518         1.394909         0.966788
 O         3.428671         0.012412         0.514408
 C         2.700842        -0.045982        -0.694774
 C         2.523649         1.363990        -1.471344
 O         1.231446         0.972112        -1.891443
 C         1.252355         0.474971        -0.440165
 C         0.162133        -0.211446         0.344021
 H         0.364566         2.841446         1.007200
 H         1.784053         3.771235         0.366658
 H         0.779509         3.134521        -0.745719
 H         3.996635         2.146342         0.879175
 H         2.844365         1.405631         1.947883
 H         2.797105        -1.018736        -1.226186
 H         3.115260         2.056728        -2.013039
 H         0.573728        -0.302568         1.331186
 H        -0.817559         0.219035         0.469673
 H         0.023583        -1.155876        -0.074070
