19
Iteration:  1775charge 0 multiplicity 1
 C         1.151344         3.038988         0.232124
 C         2.032655         1.773415        -0.013398
 C         3.126537         1.397835         0.964931
 O         3.402288        -0.016717         0.609548
 C         2.785335        -0.036319        -0.693271
 C         2.538603         1.354983        -1.486712
 O         1.196447         0.909740        -1.797008
 C         1.332203         0.484172        -0.424540
 C         0.135511        -0.223526         0.191353
 H         0.657317         2.953937         1.284941
 H         1.702502         3.928721         0.194456
 H         0.374659         2.997766        -0.423672
 H         4.139515         1.898799         0.903780
 H         2.855355         1.358647         1.956922
 H         2.970681        -1.143146        -1.142116
 H         2.962103         1.907637        -2.311354
 H         0.667195        -0.606601         1.035422
 H        -0.823364         0.188568         0.599025
 H        -0.231679        -1.065504        -0.523236
