19
Iteration:  1322
 C         1.249593         3.043505         0.210734
 C         2.051484         1.794591        -0.006243
 C         2.962737         1.277567         1.072684
 O         3.584245         0.087217         0.442357
 C         2.717388        -0.024837        -0.689821
 C         2.518827         1.354650        -1.396827
 O         1.176068         0.861294        -1.805861
 C         1.237718         0.416878        -0.483892
 C         0.164690        -0.183390         0.300592
 H         0.781446         3.153773         1.203280
 H         1.880383         3.925663        -0.198230
 H         0.551337         3.153726        -0.760318
 H         3.852582         1.853936         1.473508
 H         2.364780         1.051610         1.954352
 H         2.827873        -0.852832        -1.360483
 H         3.109374         2.000199        -2.192339
 H         0.582170        -0.797205         1.129975
 H        -0.676464         0.366882         0.720597
 H        -0.183753        -0.999991        -0.422802
