19
Iteration:  4920charge 0 multiplicity 1
 C         1.176288         3.038225         0.260764
 C         2.012248         1.765913         0.066311
 C         3.137535         1.314620         1.046470
 O         3.351052         0.003849         0.474341
 C         2.827732         0.016699        -0.696005
 C         2.507576         1.361484        -1.398293
 O         1.203002         0.975906        -1.855325
 C         1.380760         0.420978        -0.459068
 C         0.114121        -0.279141         0.185212
 H         0.876669         2.994878         1.316960
 H         1.876636         3.885156         0.169394
 H         0.443276         3.076805        -0.500908
 H         4.010190         1.980865         1.009028
 H         2.812295         1.002599         2.091193
 H         2.926479        -0.789069        -1.366540
 H         3.104705         1.968204        -2.201170
 H         0.238512        -0.742173         1.249768
 H        -0.599052         0.537057         0.376593
 H        -0.350537        -1.075643        -0.297410
