19
Iteration:  1982charge 0 multiplicity 1
 C         1.267659         3.121491         0.099876
 C         2.010283         1.755059         0.082298
 C         3.010698         1.329416         1.165598
 O         3.622973         0.101101         0.427536
 C         2.756012         0.016107        -0.712421
 C         2.545410         1.313308        -1.366160
 O         1.112434         0.889305        -1.801659
 C         1.229021         0.392442        -0.411915
 C         0.127017        -0.307033         0.171236
 H         0.853319         3.300705         1.147697
 H         2.006699         3.881990        -0.246014
 H         0.454503         3.339274        -0.479582
 H         3.916412         1.859982         1.467361
 H         2.548394         0.911054         2.046608
 H         2.821216        -0.982085        -1.303099
 H         3.061489         1.997281        -2.084582
 H         0.416520        -0.729381         1.028318
 H        -0.698528         0.356941         0.337447
 H        -0.415246        -1.051808        -0.451658
