19
Iteration:  2743charge 0 multiplicity 1
 C         1.218710         3.054338         0.222547
 C         2.011407         1.778459        -0.001912
 C         3.146650         1.375090         0.904200
 O         3.431915        -0.000951         0.561092
 C         2.728029        -0.048383        -0.613580
 C         2.502713         1.339658        -1.396335
 O         1.130426         1.036954        -1.794042
 C         1.329373         0.394852        -0.403300
 C         0.166401        -0.342315         0.171830
 H         0.829627         2.918851         1.183725
 H         1.974135         3.819366         0.259128
 H         0.482577         3.511328        -0.571570
 H         4.101947         1.975984         0.775070
 H         2.838164         1.459117         1.960961
 H         2.876214        -0.950252        -1.269741
 H         3.099589         1.859437        -2.245345
 H         0.344673        -0.666221         1.160569
 H        -0.673222         0.346530         0.155158
 H        -0.034754        -1.290675        -0.457782
