19
Iteration:   109charge 0 multiplicity 1
 C         1.028513         2.936441         0.229402
 C         2.069358         1.852465        -0.038714
 C         3.215901         1.351338         0.938686
 O         3.336659        -0.039169         0.614134
 C         2.687065        -0.078308        -0.642491
 C         2.619570         1.388705        -1.400195
 O         1.204438         0.998031        -1.848959
 C         1.298531         0.520245        -0.480609
 C         0.236713        -0.275773         0.211245
 H         0.780487         2.919078         1.324143
 H         1.323214         3.974062        -0.046613
 H         0.133477         2.659249        -0.336591
 H         4.229534         1.856666         0.670051
 H         2.983049         1.458356         1.979463
 H         2.854962        -0.999311        -1.091981
 H         3.201853         1.901331        -2.097989
 H         0.594448        -0.475320         1.267010
 H        -0.629878         0.388369         0.388754
 H         0.080958        -1.183472        -0.288364
