19
Iteration:   603charge 0 multiplicity 1
 C         1.275437         3.084076         0.230275
 C         2.011034         1.756505         0.109773
 C         3.031127         1.204836         1.093172
 O         3.699209         0.136869         0.277526
 C         2.747751        -0.065175        -0.751477
 C         2.529367         1.319028        -1.352896
 O         1.127170         0.968718        -1.742459
 C         1.219855         0.438313        -0.357451
 C         0.014312        -0.232682         0.167796
 H         0.729096         3.066009         1.153549
 H         2.028500         3.969436         0.249071
 H         0.540632         3.269159        -0.685405
 H         3.690063         1.977752         1.446036
 H         2.629555         0.688789         2.078266
 H         3.027229        -0.905353        -1.376989
 H         3.344766         1.573051        -2.096191
 H        -0.043475        -0.277329         1.247432
 H        -0.898729         0.352843        -0.111660
 H        -0.130138        -1.277748        -0.319052
