19
Iteration:   333charge 0 multiplicity 1
 C         1.312143         3.088302         0.235869
 C         1.996554         1.769969         0.084653
 C         3.044948         1.219917         1.086018
 O         3.710132         0.155621         0.372237
 C         2.799335        -0.029670        -0.687582
 C         2.451361         1.378783        -1.403743
 O         1.122218         0.824174        -1.722471
 C         1.266540         0.436177        -0.324267
 C        -0.029792        -0.233240         0.057990
 H         0.858645         3.065072         1.223645
 H         2.057881         3.843945         0.257761
 H         0.499760         3.330688        -0.507622
 H         3.841457         1.910321         1.492491
 H         2.457234         0.878849         1.897875
 H         3.025269        -0.874629        -1.376591
 H         3.129780         1.885628        -2.182321
 H        -0.192225        -0.490330         1.012084
 H        -0.744203         0.441709        -0.361884
 H        -0.256312        -1.051450        -0.615540
