19
Iteration:  2308
 C         1.244296         2.997125         0.292342
 C         2.061855         1.802059        -0.043206
 C         3.076879         1.402616         0.996291
 O         3.539718         0.046365         0.468332
 C         2.758712        -0.048624        -0.641898
 C         2.504032         1.325296        -1.358863
 O         1.132486         0.935390        -1.884058
 C         1.331265         0.392086        -0.369983
 C         0.040744        -0.236579         0.204016
 H         0.703311         2.800833         1.219633
 H         1.979752         3.965558         0.248380
 H         0.523664         3.264074        -0.533272
 H         3.931786         2.055218         0.874638
 H         2.817434         1.342034         2.084315
 H         2.981612        -0.874776        -1.152279
 H         3.079111         1.725135        -2.156172
 H         0.112914        -0.562602         1.192266
 H        -0.823975         0.420969         0.003913
 H        -0.191772        -1.272315        -0.256608
