19
Iteration:  2377charge 0 multiplicity 1
 C         1.315715         3.101335         0.154636
 C         2.023758         1.780567         0.034097
 C         2.996056         1.373219         1.104570
 O         3.511778         0.055926         0.442744
 C         2.783750        -0.044441        -0.695418
 C         2.503621         1.314178        -1.436123
 O         1.065226         0.957855        -1.775121
 C         1.281173         0.425487        -0.441364
 C         0.148220        -0.321599         0.214838
 H         0.823968         3.063472         1.212285
 H         2.040595         3.992938         0.011245
 H         0.640277         3.228832        -0.667653
 H         3.978924         1.818101         1.176111
 H         2.668305         1.039693         2.146787
 H         3.102688        -0.996070        -1.214727
 H         3.281627         1.865962        -1.994303
 H         0.554340        -0.845894         1.163382
 H        -0.672092         0.411970         0.408094
 H        -0.204858        -1.160918        -0.329908
