19
Iteration:  2652
 C         1.243661         2.965036         0.274326
 C         2.026005         1.716946         0.016112
 C         3.042594         1.357934         1.019505
 O         3.609168         0.128404         0.443305
 C         2.743660        -0.057076        -0.731548
 C         2.502800         1.293466        -1.365659
 O         1.140465         0.913473        -1.802374
 C         1.300141         0.402038        -0.408357
 C         0.093081        -0.139112         0.197963
 H         0.625062         2.968175         1.220623
 H         1.922524         3.779500         0.209649
 H         0.638436         3.171484        -0.558093
 H         3.861186         2.042070         1.086434
 H         2.685451         1.062575         2.041303
 H         2.720191        -1.049242        -1.336875
 H         3.068075         1.914047        -2.032257
 H         0.076715        -0.589931         1.205055
 H        -0.636094         0.652664         0.137438
 H        -0.292189        -0.912558        -0.437911
