19
Iteration:  3747
 C         1.295246         3.047886         0.243475
 C         2.022474         1.679622         0.055295
 C         2.983223         1.251082         1.157771
 O         3.601069         0.115890         0.382931
 C         2.774162        -0.035539        -0.650662
 C         2.551020         1.267920        -1.409483
 O         1.117654         1.020317        -1.867792
 C         1.285205         0.420230        -0.486041
 C         0.082104        -0.167350         0.180289
 H         1.037693         2.992688         1.285969
 H         1.758110         4.049915         0.183054
 H         0.390126         2.866087        -0.411772
 H         3.687156         1.954197         1.549681
 H         2.483209         0.846722         2.024588
 H         3.013750        -0.941614        -1.180777
 H         2.977418         1.875093        -2.161301
 H         0.378537        -0.738857         1.134303
 H        -0.742918         0.496620         0.468232
 H        -0.317502        -0.961138        -0.412076
