19
Iteration:  4131
 C         1.328863         3.111082         0.313034
 C         1.919874         1.773351         0.057044
 C         3.103845         1.294045         1.039436
 O         3.490103         0.040373         0.467762
 C         2.741916         0.031123        -0.771387
 C         2.500820         1.371453        -1.354347
 O         1.227398         0.887343        -1.810011
 C         1.266674         0.411870        -0.482869
 C         0.073400        -0.346810         0.177773
 H         0.592133         3.340732         1.091774
 H         2.130740         3.994522         0.418762
 H         0.900228         3.542632        -0.668680
 H         3.718274         2.211866         0.947066
 H         2.679980         1.222804         2.049290
 H         2.967450        -0.840954        -1.278753
 H         3.179068         1.923589        -2.002369
 H         0.290111        -0.775533         1.177465
 H        -0.916639         0.166067         0.239621
 H        -0.164722        -1.208422        -0.423891
