19
Iteration:    26
 C         1.371118         3.170881         0.179169
 C         1.977606         1.738566         0.003822
 C         2.913483         1.254084         1.122336
 O         3.698525         0.265060         0.424685
 C         2.823213        -0.024584        -0.718734
 C         2.459584         1.315422        -1.404939
 O         1.110545         0.783128        -1.730691
 C         1.313266         0.345964        -0.385943
 C         0.021894        -0.277522         0.145159
 H         0.523109         3.157768         0.859912
 H         2.127272         3.931817         0.569925
 H         1.008244         3.557317        -0.715062
 H         3.559399         1.979570         1.553720
 H         2.294813         0.796680         2.058170
 H         3.075279        -0.949029        -1.178009
 H         2.899616         2.031437        -2.218851
 H         0.266105        -0.861025         0.998139
 H        -0.817256         0.438406         0.277179
 H        -0.355369        -0.948652        -0.779543
