19
Iteration:  2144charge 0 multiplicity 1
 C         1.318994         3.053795         0.160588
 C         2.025187         1.742744         0.020858
 C         3.050823         1.268268         1.080052
 O         3.613923         0.182115         0.438255
 C         2.750591        -0.007553        -0.665575
 C         2.472502         1.375726        -1.387652
 O         1.097727         0.889302        -1.778640
 C         1.307808         0.339799        -0.356952
 C         0.057866        -0.270480         0.163012
 H         0.738719         3.008279         1.051713
 H         1.990922         3.978118         0.012108
 H         0.633040         3.160499        -0.639883
 H         3.767750         2.060581         1.318938
 H         2.502711         0.926816         2.056440
 H         2.892038        -0.892026        -1.218960
 H         3.139020         1.872754        -2.114247
 H         0.177117        -0.587002         1.215886
 H        -0.640338         0.615548        -0.045729
 H        -0.307976        -1.133589        -0.540335
