19
Iteration:  1714charge 0 multiplicity 1
 C         1.298973         3.078894         0.193301
 C         1.907521         1.713812         0.073815
 C         3.013889         1.231566         1.090191
 O         3.759666         0.228683         0.403272
 C         2.961902        -0.041052        -0.737428
 C         2.509617         1.269722        -1.371959
 O         1.104745         0.829602        -1.830187
 C         1.179422         0.401685        -0.354338
 C        -0.078276        -0.138810         0.195825
 H         0.418802         3.101309         0.815788
 H         1.946270         3.906615         0.537697
 H         0.977707         3.334643        -0.948523
 H         3.616530         2.049591         1.389104
 H         2.448595         0.766327         1.993800
 H         3.128399        -0.942647        -1.290830
 H         3.264046         1.802294        -1.994973
 H         0.029013        -0.416099         1.259538
 H        -0.861725         0.577761         0.009815
 H        -0.226812        -1.122437        -0.196601
