19
Iteration:  1956charge 0 multiplicity 1
 C         1.216053         3.021383         0.276610
 C         1.994643         1.727982         0.015580
 C         3.036888         1.352892         0.925388
 O         3.490864         0.095609         0.507758
 C         2.716213        -0.045675        -0.685048
 C         2.568786         1.320664        -1.366942
 O         1.250000         0.988602        -1.911832
 C         1.251265         0.398305        -0.402427
 C         0.131278        -0.246256         0.286899
 H         0.843888         3.143590         1.240456
 H         1.778356         3.889873        -0.233672
 H         0.268969         3.111473        -0.393229
 H         3.920719         1.943858         0.977622
 H         2.621113         1.200185         1.988756
 H         2.962098        -0.941415        -1.235227
 H         3.348678         1.781009        -2.071171
 H         0.574479        -0.735680         1.303593
 H        -0.885292         0.232685         0.426116
 H        -0.185748        -1.140377        -0.322093
