19
Iteration:  3164charge 0 multiplicity 1
 C         1.190108         2.961017         0.217322
 C         1.978919         1.708747        -0.031462
 C         3.080000         1.349232         0.985470
 O         3.441142         0.050429         0.510174
 C         2.700944        -0.145285        -0.661948
 C         2.653660         1.387021        -1.441940
 O         1.202440         1.034394        -1.805543
 C         1.292921         0.455613        -0.478115
 C         0.112682        -0.210181         0.294302
 H         0.712514         2.673370         1.209832
 H         1.769405         4.019820         0.365603
 H         0.459305         3.119747        -0.526605
 H         3.929597         2.084390         0.998364
 H         2.760362         1.230339         1.981048
 H         3.036998        -1.122016        -1.284594
 H         3.393878         1.974348        -2.000099
 H         0.518285        -0.708039         1.186883
 H        -0.738284         0.397744         0.600474
 H        -0.172017        -0.918582        -0.592062
