19
Iteration:  4077charge 0 multiplicity 1
 C         1.121362         2.904876         0.301075
 C         2.053717         1.801655         0.020876
 C         3.164875         1.398339         1.045316
 O         3.495251         0.008171         0.447436
 C         2.723166        -0.103075        -0.723861
 C         2.559560         1.292198        -1.416132
 O         1.196403         0.979188        -1.800677
 C         1.315745         0.510000        -0.407353
 C         0.092127        -0.184755         0.148594
 H         0.631954         2.728089         1.264582
 H         1.589747         3.944591         0.501121
 H         0.312980         2.922285        -0.510600
 H         4.133851         2.040431         1.065012
 H         2.629861         1.414389         2.029951
 H         2.970541        -0.957393        -1.287822
 H         3.275945         1.804056        -2.121168
 H         0.136566        -0.593903         1.140169
 H        -0.678940         0.629873         0.202805
 H        -0.349540        -0.981643        -0.438116
