19
Iteration:  4995
 C         1.248762         3.082482         0.258740
 C         1.942917         1.698494         0.012500
 C         3.052607         1.258568         1.033044
 O         3.615102         0.020499         0.461041
 C         2.809089        -0.008307        -0.652224
 C         2.446093         1.431934        -1.346410
 O         1.168772         0.888805        -1.812535
 C         1.267135         0.416805        -0.466172
 C         0.078384        -0.179599         0.142631
 H         0.567064         2.837845         1.119901
 H         2.133507         3.757072         0.541416
 H         0.792458         3.456990        -0.647549
 H         3.931411         1.855682         1.106940
 H         2.636715         1.234949         2.090626
 H         3.125702        -0.746763        -1.378236
 H         3.024377         2.049365        -2.063312
 H         0.275025        -0.804488         1.103811
 H        -0.770469         0.521755         0.346817
 H        -0.315468        -0.939473        -0.564191
