19
Iteration:   202
 C         1.380345         3.135000         0.232087
 C         2.000748         1.757854         0.050893
 C         2.980283         1.340032         1.082916
 O         3.696895         0.212120         0.395258
 C         2.755923        -0.045280        -0.659549
 C         2.476122         1.246747        -1.297049
 O         1.138489         0.894924        -1.808675
 C         1.177048         0.428971        -0.438093
 C        -0.015868        -0.396921         0.127335
 H         0.560445         3.293538         0.912473
 H         2.153816         3.835492         0.535785
 H         1.051020         3.431841        -0.834436
 H         3.727105         2.086076         1.131009
 H         2.683006         1.022819         2.065065
 H         2.930123        -0.972633        -1.407467
 H         3.173074         1.962368        -1.950681
 H         0.266604        -0.732170         1.086566
 H        -0.885408         0.227740         0.319713
 H        -0.000052        -1.282881        -0.606294
