19
Iteration:  3325
 C         1.251450         3.015413         0.244786
 C         2.009528         1.751646         0.004103
 C         3.001031         1.319213         1.044428
 O         3.576273         0.092351         0.464661
 C         2.708292        -0.075131        -0.732980
 C         2.536111         1.295539        -1.361858
 O         1.183188         0.980571        -1.820212
 C         1.261997         0.398400        -0.429356
 C         0.135978        -0.167740         0.161238
 H         0.733726         2.825219         1.171645
 H         1.880748         3.920295         0.427569
 H         0.578248         3.275079        -0.588534
 H         3.807459         2.028613         1.312787
 H         2.562136         0.977761         2.077031
 H         2.781437        -1.109034        -1.292118
 H         3.156950         1.776923        -2.151080
 H         0.473380        -0.639086         1.192164
 H        -0.675196         0.565088         0.506066
 H        -0.218858        -1.052316        -0.318283
