19
Iteration:  3521
 C         1.216272         2.994916         0.327465
 C         2.003392         1.724622         0.070475
 C         3.095805         1.375692         0.941408
 O         3.525486         0.087962         0.455593
 C         2.776633        -0.070795        -0.740382
 C         2.603141         1.320731        -1.339269
 O         1.150139         0.912338        -1.787768
 C         1.295620         0.371880        -0.389733
 C         0.027324        -0.171080         0.107828
 H         0.368352         3.045183         1.072751
 H         1.970462         3.758895         0.505318
 H         0.755272         3.222870        -0.691387
 H         3.905330         2.095967         0.881739
 H         2.750768         1.291596         1.971854
 H         3.027885        -0.887219        -1.391548
 H         3.241275         1.875551        -1.989057
 H         0.211062        -0.559238         1.177591
 H        -0.702551         0.649481         0.281707
 H        -0.473127        -0.874584        -0.417953
