19
Iteration:  4548
 C         1.295699         3.090523         0.205688
 C         1.944236         1.727682         0.033997
 C         3.025115         1.312031         1.059003
 O         3.576910         0.024946         0.455474
 C         2.810578         0.006429        -0.701340
 C         2.558475         1.394489        -1.331864
 O         1.162984         0.960225        -1.795888
 C         1.288551         0.422636        -0.377746
 C         0.023000        -0.343774         0.113466
 H         0.691355         3.197366         1.127982
 H         2.008225         3.964658         0.350801
 H         0.728237         3.494901        -0.582173
 H         3.957808         1.918861         1.181970
 H         2.526268         0.948827         1.988667
 H         3.014667        -0.979943        -1.300111
 H         2.950348         2.189626        -1.955441
 H         0.105287        -0.991628         0.924073
 H        -0.711435         0.440092         0.193337
 H        -0.371892        -1.087338        -0.676289
