19
Iteration:  4613charge 0 multiplicity 1
 C         1.128141         2.940498         0.344784
 C         2.090430         1.843948         0.022306
 C         3.102497         1.316745         1.056299
 O         3.498749         0.005647         0.536553
 C         2.740187        -0.051891        -0.696669
 C         2.571834         1.306845        -1.439809
 O         1.181636         0.961536        -1.871766
 C         1.271044         0.505860        -0.509198
 C         0.130755        -0.175854         0.138579
 H         0.645700         2.729487         1.332464
 H         1.738024         3.956170         0.498092
 H         0.460847         2.865719        -0.464135
 H         3.935445         2.037066         1.249915
 H         2.574758         1.077737         1.926003
 H         2.840569        -1.030992        -1.311330
 H         3.109071         1.991849        -2.048192
 H         0.444227        -0.590102         1.073263
 H        -0.689452         0.515744         0.375859
 H        -0.279033        -1.078952        -0.449871
