19
Iteration:   583
 C         1.331126         3.009013         0.207097
 C         2.002404         1.725908         0.045008
 C         2.940598         1.130931         1.045007
 O         3.680274         0.183472         0.316678
 C         2.692229        -0.055527        -0.721928
 C         2.550903         1.325659        -1.336785
 O         1.167892         1.073377        -1.811688
 C         1.235390         0.432254        -0.425964
 C         0.060466        -0.243159         0.309785
 H         0.739625         3.054394         1.126735
 H         2.117095         3.818250         0.112339
 H         0.655649         3.168369        -0.783849
 H         3.612902         1.813045         1.532999
 H         2.442261         0.543150         2.028141
 H         2.807292        -0.898589        -1.242599
 H         3.080171         2.166253        -1.878474
 H         0.318302        -0.150186         1.315733
 H        -0.962184         0.107985         0.013528
 H        -0.051547        -1.444334         0.040182
