19
Iteration:  4006
 C         1.359441         3.069344         0.244829
 C         1.982305         1.778367         0.020763
 C         3.006523         1.301212         1.076752
 O         3.605873         0.065170         0.494206
 C         2.730646        -0.040626        -0.697624
 C         2.508251         1.297614        -1.389249
 O         1.095659         0.941043        -1.832537
 C         1.249080         0.522641        -0.445405
 C         0.154869        -0.300756         0.121716
 H         0.816435         3.275583         1.252965
 H         2.033485         3.971500         0.302953
 H         0.581882         3.338627        -0.456582
 H         3.769255         1.948052         1.433196
 H         2.457668         0.891801         1.935964
 H         2.788025        -1.035365        -1.228890
 H         2.947760         1.990658        -2.124097
 H         0.448933        -0.757650         1.069701
 H        -0.787378         0.167812         0.353845
 H        -0.089987        -1.241455        -0.492080
