19
Iteration:   653charge 0 multiplicity 1
 C         1.203533         3.036722         0.484553
 C         1.996724         1.760668         0.036828
 C         3.239934         1.416823         0.825286
 O         3.396132         0.034049         0.539545
 C         2.718075        -0.037927        -0.706434
 C         2.572575         1.242437        -1.426436
 O         1.226142         0.997030        -1.868353
 C         1.215714         0.453552        -0.448126
 C         0.079753        -0.301144         0.144005
 H         0.772413         2.792064         1.519620
 H         1.760822         3.926212         0.543567
 H         0.430398         3.187061        -0.144724
 H         4.198404         1.997103         0.502432
 H         3.136074         1.669087         1.874910
 H         2.897920        -1.145348        -1.148361
 H         3.269587         1.754774        -2.052961
 H         0.486557        -0.820439         1.128427
 H        -0.715565         0.407727         0.419292
 H        -0.431797        -0.938153        -0.482996
