19
Iteration:   380
 C         1.265630         3.055053         0.331115
 C         2.026336         1.795494         0.025023
 C         3.179328         1.381684         0.918930
 O         3.344097        -0.060007         0.569215
 C         2.719351        -0.009499        -0.723443
 C         2.521104         1.383624        -1.394582
 O         1.200546         1.000724        -1.837886
 C         1.247583         0.449150        -0.438394
 C         0.170071        -0.379645         0.170064
 H         0.541934         2.880459         1.191122
 H         1.931310         3.869037         0.582906
 H         0.654166         3.364658        -0.563133
 H         4.001829         1.941052         0.543106
 H         3.075698         1.571268         2.031910
 H         2.767381        -0.898559        -1.262179
 H         3.050752         2.088211        -2.015540
 H         0.495807        -0.523067         1.245829
 H        -0.830710         0.020190        -0.015048
 H         0.120434        -1.296791        -0.284509
