19
Iteration:  2657
 C         1.283052         2.951275         0.225067
 C         2.037029         1.679517         0.040233
 C         3.038749         1.347690         1.060572
 O         3.597106         0.147766         0.418660
 C         2.727315        -0.078129        -0.728151
 C         2.507128         1.340985        -1.372766
 O         1.114206         0.896832        -1.830048
 C         1.312856         0.393736        -0.376642
 C         0.080249        -0.130807         0.199227
 H         0.748765         2.913437         1.158071
 H         2.029648         3.802013         0.363895
 H         0.427225         3.200902        -0.579910
 H         3.838101         2.123986         1.301019
 H         2.694535         1.133680         2.070862
 H         2.873548        -0.936422        -1.342432
 H         3.077079         2.044741        -2.044892
 H         0.177755        -0.563697         1.205718
 H        -0.663184         0.690952         0.095897
 H        -0.336184        -0.997357        -0.400971
