19
Iteration:  2574charge 0 multiplicity 1
 C         1.282829         3.102243         0.192469
 C         2.033752         1.768947         0.037542
 C         3.087245         1.331678         1.036775
 O         3.510647         0.050960         0.473682
 C         2.698722        -0.015173        -0.676736
 C         2.504543         1.342231        -1.380703
 O         1.120008         0.956926        -1.869085
 C         1.301041         0.408966        -0.434656
 C         0.124506        -0.339717         0.231500
 H         0.748471         3.269266         1.219520
 H         2.067229         3.931166         0.250644
 H         0.583417         3.128403        -0.609888
 H         3.940942         1.964905         1.234719
 H         2.565346         1.056508         2.014787
 H         2.966882        -0.870653        -1.350135
 H         3.197302         1.774509        -2.073927
 H         0.474525        -0.729614         1.265902
 H        -0.658681         0.373248         0.538121
 H        -0.289077        -1.033664        -0.423500
