19
Iteration:  2006
 C         1.390743         3.119705         0.109807
 C         2.036318         1.766189         0.021841
 C         2.939680         1.303903         1.071351
 O         3.606971         0.124400         0.436512
 C         2.809597        -0.045584        -0.678246
 C         2.428437         1.366100        -1.371628
 O         1.141948         0.905914        -1.705679
 C         1.276980         0.434742        -0.336681
 C         0.078543        -0.392512         0.123673
 H         0.640549         3.146751         0.984919
 H         2.033894         3.921710        -0.003232
 H         0.704471         3.266379        -0.695603
 H         3.794749         2.053951         1.191443
 H         2.516458         1.015660         1.989507
 H         3.058583        -0.900577        -1.256132
 H         2.776720         2.045426        -2.080041
 H         0.133884        -0.882511         1.028413
 H        -0.651362         0.368953         0.267996
 H        -0.426835        -0.972047        -0.577462
