19
Iteration:  4104charge 0 multiplicity 1
 C         1.215937         2.983119         0.370853
 C         2.004650         1.794681         0.004635
 C         3.201153         1.344064         0.925251
 O         3.470814         0.039539         0.565479
 C         2.676106        -0.061165        -0.661081
 C         2.564958         1.345401        -1.414606
 O         1.179437         0.986256        -1.852874
 C         1.277164         0.489006        -0.477985
 C         0.116799        -0.317032         0.140897
 H         0.477256         2.809801         1.176271
 H         1.716790         3.851710         0.668389
 H         0.682020         3.307247        -0.503700
 H         4.002550         2.058018         0.779246
 H         2.768226         1.469560         1.905516
 H         2.874903        -1.081558        -1.150603
 H         3.280115         1.860424        -2.070686
 H         0.236162        -0.616246         1.209693
 H        -0.731644         0.380085         0.162801
 H        -0.308618        -1.207833        -0.416324
