19
Iteration:  1615
 C         1.221316         3.079865         0.120511
 C         2.021001         1.818702         0.008442
 C         3.116022         1.313281         1.034797
 O         3.460873         0.013844         0.549692
 C         2.761656        -0.025753        -0.654877
 C         2.530186         1.389686        -1.397456
 O         1.131001         0.917622        -1.782284
 C         1.280770         0.376567        -0.448190
 C         0.160582        -0.277280         0.177046
 H         1.015117         3.249718         1.162763
 H         1.891004         3.904913         0.026260
 H         0.147268         3.065427        -0.451613
 H         3.939559         2.014507         0.948634
 H         2.773286         1.354066         2.127814
 H         2.966285        -1.003287        -1.282256
 H         3.158705         2.007974        -2.157018
 H         0.627766        -0.833673         1.033555
 H        -0.618831         0.371199         0.587117
 H        -0.390018        -0.958098        -0.536285
