19
Iteration:  3144charge 0 multiplicity 1
 C         1.160141         3.003309         0.245022
 C         2.136247         1.852688         0.037461
 C         3.113189         1.363269         1.017333
 O         3.438695        -0.034429         0.516228
 C         2.679973        -0.004996        -0.667184
 C         2.501092         1.272890        -1.416354
 O         1.207862         1.010569        -1.889319
 C         1.302424         0.471707        -0.438749
 C         0.159634        -0.279859         0.221823
 H         0.705541         2.966187         1.302230
 H         1.675610         3.991492         0.123794
 H         0.396080         2.912241        -0.475199
 H         4.052100         1.977211         1.228725
 H         2.579976         1.272409         1.992217
 H         2.805270        -0.899235        -1.356547
 H         3.228439         1.569565        -2.171355
 H         0.622616        -0.491061         1.155510
 H        -0.696206         0.365864         0.392223
 H        -0.264549        -1.248010        -0.398029
