19
Iteration:  1093charge 0 multiplicity 1
 C         1.251788         3.063375         0.332898
 C         2.101890         1.829474         0.016304
 C         3.251338         1.442022         0.905843
 O         3.360998         0.042460         0.588894
 C         2.642638        -0.050718        -0.662896
 C         2.471419         1.286825        -1.469681
 O         1.121125         0.936667        -1.770808
 C         1.292203         0.442762        -0.407941
 C         0.198209        -0.380234         0.109254
 H         0.688977         2.906866         1.178945
 H         1.644631         4.076775         0.197625
 H         0.505521         3.044842        -0.537842
 H         4.161187         1.923876         0.641153
 H         3.203365         1.537180         2.072616
 H         2.750669        -0.962934        -1.067531
 H         3.161282         1.899744        -2.181021
 H         0.546403        -0.931586         0.979007
 H        -0.641593         0.341718         0.441372
 H        -0.173724        -0.925030        -0.873265
