19
Iteration:  1755
 C         1.209352         3.000035         0.190700
 C         2.031627         1.759859         0.016354
 C         3.077227         1.365626         1.016759
 O         3.566002         0.103751         0.473840
 C         2.710488        -0.023915        -0.666076
 C         2.553668         1.299570        -1.355556
 O         1.122373         0.896329        -1.836262
 C         1.330356         0.396521        -0.388084
 C         0.120149        -0.208099         0.203698
 H         0.439153         2.872010         1.065658
 H         1.740997         3.868087         0.481315
 H         0.603361         3.174595        -0.738123
 H         3.920715         2.073579         1.114982
 H         2.630715         1.160856         2.039693
 H         3.029551        -0.983157        -1.292062
 H         3.165498         1.731448        -2.074999
 H         0.086131        -0.662024         1.197955
 H        -0.534891         0.718898         0.223351
 H        -0.403801        -0.852203        -0.613321
