19
Iteration:   163
 C         1.258166         3.068664         0.264671
 C         2.013228         1.784814         0.044446
 C         2.954616         1.293178         1.107371
 O         3.648863         0.139925         0.429122
 C         2.814457        -0.062688        -0.745370
 C         2.469040         1.333302        -1.398154
 O         1.171611         0.816802        -1.787052
 C         1.290132         0.387547        -0.428116
 C         0.075372        -0.172815         0.106817
 H         1.088848         3.288471         1.361335
 H         1.842801         3.911862        -0.188092
 H         0.314724         3.045341        -0.297930
 H         3.654828         2.061572         1.651185
 H         2.297541         0.953530         1.988688
 H         3.085229        -0.785354        -1.407859
 H         2.987601         1.763131        -2.164122
 H         0.206634        -0.339908         1.316810
 H        -0.810661         0.553941         0.065394
 H        -0.205945        -1.167643        -0.204240
