19
Iteration:  2022charge 0 multiplicity 1
 C         1.291740         3.107821         0.175985
 C         1.925581         1.737754         0.033104
 C         3.100982         1.382991         1.042745
 O         3.609580         0.110293         0.465264
 C         2.719739        -0.033535        -0.671572
 C         2.530717         1.311979        -1.352882
 O         1.106167         0.928994        -1.790380
 C         1.272609         0.411228        -0.414904
 C         0.052239        -0.333599         0.161900
 H         0.671157         3.181055         1.041113
 H         2.262060         3.788002         0.258984
 H         0.750131         3.451014        -0.790890
 H         3.848138         2.152630         1.242543
 H         2.582394         1.158748         2.046535
 H         2.969718        -1.008022        -1.215642
 H         3.331885         1.789535        -2.053050
 H         0.505023        -1.001567         1.043833
 H        -0.935782         0.190469         0.390955
 H        -0.082356        -1.163030        -0.634733
