19
Iteration:  2216charge 0 multiplicity 1
 C         1.212535         3.062239         0.201554
 C         2.052559         1.785270         0.038444
 C         3.106383         1.335383         0.944251
 O         3.415101         0.038464         0.591224
 C         2.755873        -0.030205        -0.716654
 C         2.546512         1.334513        -1.443504
 O         1.123236         0.957304        -1.824826
 C         1.328066         0.466817        -0.405185
 C         0.164962        -0.334898         0.199251
 H         0.731805         2.876329         1.226217
 H         1.868326         3.884312         0.329512
 H         0.268260         3.383646        -0.482582
 H         4.011198         2.005582         0.880321
 H         2.737277         1.449556         1.911519
 H         2.737197        -1.125831        -1.268766
 H         3.280424         1.836109        -2.166108
 H         0.659793        -0.732961         1.151271
 H        -0.583478         0.359508         0.484629
 H        -0.248802        -1.117502        -0.327449
