19
Iteration:  1824
 C         1.305017         3.124004         0.235043
 C         1.967751         1.781457         0.003252
 C         2.983526         1.316163         0.993422
 O         3.544683         0.059437         0.542434
 C         2.717562        -0.031380        -0.652503
 C         2.527861         1.324995        -1.422965
 O         1.173254         0.952800        -1.844879
 C         1.249209         0.466415        -0.464838
 C         0.171523        -0.391933         0.226399
 H         1.051123         3.491624         1.184377
 H         1.996772         3.892768        -0.271373
 H         0.287747         2.981369        -0.424774
 H         3.803610         1.992281         0.956521
 H         2.693104         1.200617         2.150746
 H         2.939494        -0.886297        -1.132824
 H         3.209396         1.881932        -2.091147
 H         0.509090        -0.761658         1.275925
 H        -0.711813         0.242169         0.411560
 H        -0.254606        -1.127173        -0.415192
