19
Iteration:  3758charge 0 multiplicity 1
 C         1.291467         3.043375         0.236060
 C         2.004645         1.761582         0.055953
 C         3.038703         1.223355         1.155697
 O         3.620655         0.139350         0.447509
 C         2.757854        -0.066796        -0.770789
 C         2.482833         1.362146        -1.402439
 O         1.183088         0.979199        -1.882135
 C         1.222359         0.435490        -0.438146
 C         0.037043        -0.266767         0.226003
 H         0.834039         3.200162         1.194156
 H         2.093296         3.747397        -0.016168
 H         0.496941         3.357369        -0.486922
 H         3.857575         1.781667         1.553543
 H         2.490591         0.731521         1.949152
 H         3.006201        -0.998046        -1.280840
 H         3.210754         1.845300        -2.007577
 H         0.338745        -0.775584         1.206443
 H        -0.775977         0.457158         0.391550
 H        -0.347101        -0.966965        -0.483554
