19
Iteration:  3457
 C         1.336560         3.078316         0.219325
 C         2.032118         1.749713         0.013057
 C         3.003144         1.275958         1.063311
 O         3.501143         0.075092         0.489158
 C         2.714028        -0.046462        -0.771926
 C         2.536886         1.389221        -1.378368
 O         1.166821         1.011948        -1.846605
 C         1.261584         0.416570        -0.443440
 C         0.088303        -0.370909         0.240502
 H         0.859298         3.150950         1.180469
 H         2.146153         3.860112        -0.013061
 H         0.509504         3.269177        -0.455597
 H         3.811515         1.933941         1.202425
 H         2.483450         1.149742         1.995183
 H         3.018109        -0.983788        -1.207556
 H         3.164287         2.002874        -1.963212
 H         0.513043        -0.501528         1.281147
 H        -0.776620         0.321126         0.321735
 H        -0.009453        -1.322740        -0.118378
