19
Iteration:  2588
 C         1.243890         3.069755         0.225194
 C         1.965663         1.775758        -0.020323
 C         3.120450         1.376551         1.011981
 O         3.466822         0.001983         0.538580
 C         2.786833        -0.087999        -0.751388
 C         2.547533         1.317017        -1.397542
 O         1.136651         0.984159        -1.792726
 C         1.264065         0.424208        -0.439382
 C         0.145184        -0.275911         0.230212
 H         0.700537         2.989733         1.194825
 H         1.953371         3.839598         0.287083
 H         0.382875         3.421938        -0.497619
 H         3.944664         2.049389         0.860468
 H         2.928538         1.481423         2.072599
 H         2.970532        -1.151975        -1.198449
 H         3.068467         2.008004        -2.084597
 H         0.453603        -0.871953         1.030684
 H        -0.618716         0.412643         0.424940
 H        -0.244378        -0.972038        -0.509030
