19
Iteration:  1771
 C         1.137305         3.015306         0.235569
 C         2.031632         1.782973        -0.020872
 C         3.124874         1.394198         1.011346
 O         3.419743        -0.001627         0.578376
 C         2.805289        -0.073641        -0.715042
 C         2.511769         1.330553        -1.490508
 O         1.197197         0.902018        -1.770459
 C         1.327848         0.482631        -0.415886
 C         0.124691        -0.200758         0.182830
 H         0.665921         2.895053         1.159647
 H         1.845164         3.931413         0.190912
 H         0.320521         3.173294        -0.553181
 H         4.079287         1.952405         0.935003
 H         2.860553         1.396183         2.109708
 H         2.989756        -0.957635        -1.164941
 H         3.034282         1.967656        -2.317358
 H         0.598106        -0.693368         1.068640
 H        -0.783532         0.270987         0.499164
 H        -0.162678        -0.939616        -0.482031
