19
Iteration:   857
 C         1.246345         3.042089         0.197985
 C         2.096611         1.720780         0.002506
 C         3.023156         1.239161         1.146921
 O         3.632904         0.104521         0.387309
 C         2.795103        -0.032200        -0.774528
 C         2.454929         1.341951        -1.446646
 O         1.083261         0.979354        -1.686795
 C         1.306435         0.342626        -0.445161
 C         0.065846        -0.174873         0.206301
 H         0.566062         2.977452         1.074452
 H         1.863969         3.930471         0.222794
 H         0.612679         3.133375        -0.654070
 H         3.923579         1.826546         1.496960
 H         2.386836         0.979056         2.071543
 H         3.147400        -0.989119        -1.392598
 H         2.976334         2.017315        -2.118426
 H         0.283046        -0.561418         1.297058
 H        -0.546388         0.704302         0.432471
 H        -0.447643        -0.934462        -0.470665
