19
Iteration:   767charge 0 multiplicity 1
 C         1.302846         3.086933         0.360240
 C         2.043634         1.771132         0.030928
 C         3.116544         1.291089         1.017306
 O         3.582007         0.059456         0.446616
 C         2.691722        -0.073414        -0.684257
 C         2.482892         1.342395        -1.438516
 O         1.078393         0.964219        -1.807090
 C         1.269630         0.424736        -0.385219
 C         0.112368        -0.287856         0.124910
 H         0.749534         3.161527         1.194485
 H         1.995775         3.961380         0.294916
 H         0.570262         3.312103        -0.524309
 H         4.013099         1.964862         1.168690
 H         2.619578         1.283782         1.957982
 H         2.890499        -0.978419        -1.136636
 H         3.129539         1.937973        -2.186890
 H         0.117613        -0.366011         1.157871
 H        -0.888440         0.177802        -0.152430
 H         0.081678        -1.315367        -0.490675
