19
Iteration:  4847charge 0 multiplicity 1
 C         1.336096         3.125233         0.227134
 C         2.012378         1.750327        -0.004732
 C         3.055734         1.248291         1.101242
 O         3.593880         0.076276         0.450055
 C         2.776948         0.012259        -0.700688
 C         2.480174         1.344053        -1.336869
 O         1.101997         0.899081        -1.719033
 C         1.290683         0.442091        -0.438185
 C         0.067185        -0.304835         0.026908
 H         0.675940         3.099754         1.148661
 H         2.007435         3.957660         0.444900
 H         0.711781         3.387462        -0.734593
 H         3.756321         2.078891         1.377527
 H         2.320544         1.017779         1.811849
 H         2.987180        -0.941822        -1.156741
 H         3.022685         2.097911        -2.040445
 H         0.201680        -0.574946         1.159720
 H        -0.847903         0.317742         0.041816
 H        -0.114450        -1.277438        -0.427712
