19
Iteration:  1736charge 0 multiplicity 1
 C         1.228104         3.002163         0.166984
 C         1.975723         1.718468         0.045262
 C         3.044396         1.299223         1.082944
 O         3.737958         0.217544         0.358810
 C         2.805453        -0.105583        -0.665092
 C         2.512173         1.278058        -1.368972
 O         1.232624         0.890624        -1.780968
 C         1.182662         0.427585        -0.418297
 C        -0.091139        -0.167853         0.207991
 H         0.386520         3.043521         0.849315
 H         1.877658         3.821088         0.593570
 H         0.874197         3.395165        -0.921709
 H         3.718174         2.104040         1.278651
 H         2.553475         0.878840         2.073411
 H         3.068934        -1.031800        -1.193402
 H         3.169211         1.909522        -1.990298
 H         0.306093        -0.574501         1.175697
 H        -0.879161         0.559743         0.371981
 H        -0.402825        -1.080358        -0.278078
