19
Iteration:  3334charge 0 multiplicity 1
 C         1.276061         3.038550         0.266948
 C         2.017742         1.762377         0.034831
 C         2.990585         1.242711         1.089623
 O         3.625339         0.081996         0.424409
 C         2.767857        -0.066784        -0.645934
 C         2.458211         1.332701        -1.383274
 O         1.169516         0.904170        -1.850401
 C         1.297690         0.474572        -0.491365
 C         0.074479        -0.171717         0.208760
 H         0.482039         2.979032         1.085571
 H         1.834056         3.922941         0.464019
 H         0.579653         3.170841        -0.685997
 H         3.816809         1.943615         1.102126
 H         2.530803         1.114971         2.105014
 H         3.002120        -0.965084        -1.363736
 H         3.232041         1.783828        -2.098175
 H         0.566237        -0.590715         1.153642
 H        -0.834886         0.514960         0.388964
 H        -0.431346        -0.823279        -0.474259
