19
Iteration:  3081charge 0 multiplicity 1
 C         1.399369         3.074482         0.199407
 C         1.967345         1.776388         0.097282
 C         3.040016         1.295641         1.035987
 O         3.630634         0.169334         0.430722
 C         2.781727         0.005394        -0.643480
 C         2.527371         1.268015        -1.400513
 O         1.112129         0.908345        -1.809130
 C         1.177856         0.462951        -0.427591
 C         0.022284        -0.360687         0.120687
 H         0.807473         3.175435         1.167216
 H         2.159608         3.772013         0.331915
 H         0.638060         3.414611        -0.594069
 H         3.765530         2.073449         1.209213
 H         2.672029         0.829882         2.016616
 H         2.842089        -0.914170        -1.035543
 H         3.240471         1.854380        -1.996249
 H         0.225298        -0.486856         1.164867
 H        -0.838087         0.296544        -0.015852
 H        -0.305389        -1.341662        -0.160741
