19
Iteration:  3638
 C         1.375149         3.147692         0.210686
 C         1.996831         1.835844         0.070674
 C         2.995419         1.211643         1.113248
 O         3.599073         0.100771         0.402993
 C         2.752402        -0.098731        -0.679773
 C         2.479540         1.310829        -1.324121
 O         1.092043         0.923501        -1.845032
 C         1.267316         0.496688        -0.386691
 C         0.119134        -0.329268         0.117998
 H         0.653353         3.113803         1.057764
 H         2.100968         3.977685         0.512401
 H         0.789389         3.535658        -0.729876
 H         3.804556         1.940955         1.160043
 H         2.544227         0.927432         2.081090
 H         2.769030        -0.909662        -1.328246
 H         3.000181         1.913928        -2.064395
 H         0.391411        -0.633325         1.176967
 H        -0.813544         0.196328         0.140285
 H        -0.044707        -1.167177        -0.579756
