19
Iteration:  2727
 C         1.305296         3.066604         0.250085
 C         2.066855         1.792610         0.000412
 C         3.107612         1.433469         1.055037
 O         3.487805        -0.013407         0.561034
 C         2.720763        -0.072017        -0.786242
 C         2.529601         1.335351        -1.440971
 O         1.091491         0.988910        -1.858251
 C         1.242333         0.475811        -0.411935
 C         0.121567        -0.348242         0.214329
 H         0.656706         2.952811         1.211120
 H         1.847394         4.050555         0.115155
 H         0.627304         2.985401        -0.493464
 H         3.977865         2.069516         1.104665
 H         2.811921         1.394560         2.109086
 H         3.112835        -1.030514        -1.239008
 H         3.169491         1.904056        -2.063800
 H         0.334723        -0.688036         1.306549
 H        -0.897908         0.086990         0.143833
 H         0.039744        -1.353112        -0.191264
