19
Iteration:  1606
 C         1.242943         3.085197         0.137564
 C         2.034397         1.800090        -0.004170
 C         3.053179         1.326337         1.036435
 O         3.591954         0.063857         0.509648
 C         2.718353        -0.058354        -0.650756
 C         2.522913         1.337099        -1.315950
 O         1.098830         0.900822        -1.816815
 C         1.293743         0.429383        -0.431072
 C         0.122610        -0.301958         0.174185
 H         0.835593         3.178128         1.093742
 H         1.904940         3.953962        -0.079156
 H         0.387834         3.224515        -0.638671
 H         3.966097         1.946750         1.301342
 H         2.537602         1.058883         1.932435
 H         2.960315        -0.950291        -1.254848
 H         3.069715         2.089377        -2.066380
 H         0.436682        -0.924700         1.102410
 H        -0.447910         0.535395         0.593972
 H        -0.478684        -0.784010        -0.604789
