19
Iteration:  3743charge 0 multiplicity 1
 C         1.282609         3.011117         0.252010
 C         2.031298         1.708782         0.046377
 C         2.956805         1.229961         1.131731
 O         3.607516         0.104952         0.385395
 C         2.762136        -0.040768        -0.657427
 C         2.577242         1.259916        -1.414623
 O         1.112076         1.015834        -1.832747
 C         1.282875         0.425071        -0.471611
 C         0.097595        -0.148762         0.166781
 H         0.998781         3.018867         1.309080
 H         1.700909         4.080732         0.177202
 H         0.416968         2.849156        -0.292962
 H         3.659492         2.122827         1.404745
 H         2.381145         0.962349         2.084979
 H         3.006711        -0.942885        -1.191181
 H         3.069546         1.907748        -2.192820
 H         0.438890        -0.647848         1.044826
 H        -0.632829         0.618214         0.453993
 H        -0.353591        -1.063840        -0.467631
