19
Iteration:  2342charge 0 multiplicity 1
 C         1.246810         3.057420         0.263114
 C         1.985534         1.859624         0.003064
 C         3.154378         1.414218         0.975934
 O         3.413148        -0.003089         0.494810
 C         2.716143        -0.038273        -0.659950
 C         2.567944         1.299719        -1.339430
 O         1.130693         0.913933        -1.894147
 C         1.241320         0.456856        -0.385337
 C         0.173725        -0.338187         0.195117
 H         0.762652         3.130020         1.283093
 H         2.039424         4.000600         0.379606
 H         0.502777         3.224167        -0.490086
 H         3.996980         1.973502         0.599632
 H         3.187612         1.457469         2.111771
 H         2.793055        -0.880096        -1.184423
 H         3.280891         1.735783        -2.031170
 H         0.469434        -0.509757         1.196459
 H        -0.859156         0.128493         0.245960
 H         0.166604        -1.192748        -0.534105
