19
Iteration:  2344
 C         1.263322         3.060835         0.253161
 C         1.982858         1.858529        -0.001144
 C         3.142004         1.401388         0.959932
 O         3.419859        -0.002079         0.507218
 C         2.710829        -0.011237        -0.649824
 C         2.548011         1.306104        -1.351974
 O         1.133967         0.919335        -1.888866
 C         1.240758         0.456738        -0.376315
 C         0.180057        -0.356934         0.185734
 H         0.790609         3.096535         1.325920
 H         1.958409         3.994089         0.362242
 H         0.570836         3.188995        -0.520353
 H         4.037732         1.941057         0.607054
 H         3.123952         1.422557         2.120369
 H         2.783715        -0.971502        -1.246886
 H         3.349158         1.763088        -1.990509
 H         0.487809        -0.534011         1.282207
 H        -0.823007         0.193737         0.236489
 H         0.117211        -1.177123        -0.488045
