19
Iteration:  3666
 C         1.288014         3.017231         0.292996
 C         2.069389         1.811222         0.056399
 C         3.100555         1.347308         0.979168
 O         3.503689         0.068100         0.532708
 C         2.686002        -0.089217        -0.731733
 C         2.536945         1.323480        -1.423669
 O         1.172080         1.045438        -1.805452
 C         1.305397         0.420987        -0.380827
 C         0.049690        -0.337088         0.146005
 H         0.482729         2.790307         0.972498
 H         1.983766         3.835388         0.652098
 H         0.805872         3.314616        -0.562195
 H         3.905453         2.102607         0.840267
 H         2.684428         1.359776         2.013439
 H         2.679687        -0.978546        -1.419431
 H         3.125843         1.706617        -2.311071
 H         0.133174        -0.788092         1.109233
 H        -0.811422         0.374347         0.140667
 H        -0.149253        -1.275824        -0.507760
