19
Iteration:  1666
 C         1.184697         3.059375         0.297149
 C         2.004677         1.832507         0.025483
 C         3.122954         1.388926         0.955132
 O         3.478286         0.005863         0.542251
 C         2.731715        -0.092290        -0.628799
 C         2.594492         1.266166        -1.437828
 O         1.224169         0.938437        -1.868277
 C         1.173938         0.524596        -0.495649
 C         0.142142        -0.293765         0.211925
 H         0.865233         3.110866         1.438085
 H         1.763490         3.972174         0.104956
 H         0.368921         3.075832        -0.392500
 H         3.958738         2.131515         0.835806
 H         2.724177         1.384611         2.036621
 H         2.884518        -1.021649        -1.279559
 H         3.084108         1.824832        -2.164796
 H         0.404782        -0.281272         1.267102
 H        -0.908036         0.058902         0.072397
 H         0.240441        -1.411270        -0.014396
