19
Iteration:  1579
 C         1.288633         3.038018         0.116675
 C         1.960107         1.711771         0.083174
 C         2.965710         1.246625         1.116234
 O         3.672353         0.297361         0.358446
 C         2.766423        -0.028135        -0.669810
 C         2.572600         1.190948        -1.456448
 O         1.194713         0.885252        -1.786169
 C         1.263947         0.486068        -0.338568
 C        -0.051660        -0.248201         0.212366
 H         0.538543         3.024847         1.039961
 H         2.123385         3.708753         0.351986
 H         0.880632         3.587854        -0.760903
 H         3.727035         1.917347         1.380671
 H         2.626245         0.649956         2.083507
 H         3.040745        -0.978337        -1.137227
 H         3.007414         1.734655        -2.142705
 H         0.285429        -0.959579         0.879790
 H        -0.554369         0.554114         0.784906
 H        -0.651191        -0.741061        -0.585060
