19
Iteration:  3120charge 0 multiplicity 1
 C         1.213863         3.098693         0.210262
 C         2.001482         1.764424         0.019922
 C         3.047387         1.239362         1.042291
 O         3.491821         0.031078         0.481630
 C         2.750553        -0.014730        -0.698532
 C         2.590860         1.365036        -1.368779
 O         1.138897         0.880447        -1.807900
 C         1.303977         0.520665        -0.435185
 C         0.150878        -0.278604         0.189959
 H         0.913211         3.207126         1.279843
 H         2.047070         3.948910         0.023969
 H         0.393322         3.258774        -0.455088
 H         3.899550         1.999116         0.946218
 H         2.818691         1.182813         2.079402
 H         2.770119        -1.121914        -1.200090
 H         2.949579         2.128664        -2.076482
 H         0.360618        -0.444247         1.276930
 H        -0.770726         0.335567         0.103307
 H        -0.100196        -1.241213        -0.457985
