19
Iteration:   432charge 0 multiplicity 1
 C         1.242661         2.974999         0.238562
 C         1.993624         1.726371         0.006898
 C         2.968526         1.199830         1.056533
 O         3.578439         0.120569         0.393307
 C         2.720620        -0.061887        -0.727061
 C         2.593977         1.324499        -1.379269
 O         1.207927         1.086236        -1.866607
 C         1.215216         0.438343        -0.444745
 C         0.127697        -0.232436         0.346683
 H         0.788389         3.014770         1.218217
 H         1.916386         3.732531         0.162337
 H         0.425480         3.067841        -0.549452
 H         3.639126         2.143026         1.358167
 H         2.461829         0.830506         1.886263
 H         2.986877        -0.859240        -1.293161
 H         3.323914         1.783631        -2.096214
 H         0.564588        -0.811270         1.080172
 H        -0.555880         0.466207         0.835873
 H        -0.396493        -0.927251        -0.388729
