19
Iteration:  3795
 C         1.284662         3.148194         0.233926
 C         2.009281         1.764623         0.083772
 C         3.162571         1.307865         1.076764
 O         3.471857         0.024662         0.502785
 C         2.700370        -0.058195        -0.751269
 C         2.467421         1.352567        -1.347978
 O         1.118465         0.975849        -1.836810
 C         1.271417         0.429914        -0.415075
 C         0.149543        -0.370837         0.094864
 H         0.595956         3.333357         1.145231
 H         2.106216         3.747024         0.562362
 H         0.946899         3.502765        -0.759496
 H         3.985315         2.032061         1.051020
 H         2.756530         1.388729         2.089851
 H         3.040949        -0.973874        -1.306212
 H         3.045652         2.006068        -2.065826
 H         0.437819        -0.718171         1.054704
 H        -0.773121         0.216970         0.209539
 H        -0.056093        -1.255402        -0.517559
