19
Iteration:  2187
 C         1.256995         3.105621         0.257738
 C         2.017318         1.809543         0.075325
 C         3.191403         1.454363         0.964643
 O         3.461186         0.042852         0.529585
 C         2.614749        -0.082950        -0.681297
 C         2.467167         1.317148        -1.338528
 O         1.194037         0.908432        -1.931422
 C         1.259825         0.455754        -0.393049
 C         0.161928        -0.381547         0.165125
 H         0.815013         3.036744         1.206338
 H         1.960839         4.029393         0.242101
 H         0.601612         3.432154        -0.563768
 H         4.112529         2.053254         0.813226
 H         2.762835         1.432264         2.039058
 H         2.701844        -1.025291        -1.160735
 H         3.235345         1.881108        -1.923029
 H         0.651102        -0.877320         1.027679
 H        -0.742082         0.202700         0.404790
 H        -0.138951        -1.340977        -0.438806
