19
Iteration:  4638charge 0 multiplicity 1
 C         1.169916         2.995664         0.319769
 C         1.969838         1.771601         0.031458
 C         3.076081         1.305704         0.952952
 O         3.407950        -0.024132         0.575265
 C         2.738561        -0.012550        -0.778370
 C         2.549626         1.380830        -1.370075
 O         1.274379         0.994606        -1.873535
 C         1.316931         0.413824        -0.439426
 C         0.165704        -0.226091         0.198872
 H         0.814335         2.931932         1.387449
 H         1.874241         3.808854         0.303281
 H         0.399408         3.069815        -0.498672
 H         3.897858         2.051363         0.873156
 H         2.658061         1.191722         1.950736
 H         2.884985        -0.823650        -1.525647
 H         3.188749         2.041489        -2.056385
 H         0.381044        -0.540215         1.266362
 H        -0.660836         0.502908         0.158085
 H        -0.113811        -1.131515        -0.249472
