19
Iteration:  4925
 C         1.184980         2.979221         0.258427
 C         2.049746         1.796273         0.045132
 C         3.112000         1.281377         1.068895
 O         3.386688         0.017336         0.468094
 C         2.777519         0.013850        -0.715504
 C         2.532451         1.370700        -1.389428
 O         1.193245         0.966540        -1.824288
 C         1.373826         0.433738        -0.467524
 C         0.112580        -0.249636         0.203228
 H         0.739699         2.947031         1.266462
 H         1.780265         3.896902         0.101558
 H         0.378365         3.197772        -0.533500
 H         3.969326         2.021190         1.112088
 H         2.822170         1.141446         2.091874
 H         3.061054        -0.830464        -1.411897
 H         3.066618         1.827681        -2.222608
 H         0.299375        -0.723238         1.148729
 H        -0.642060         0.528815         0.379498
 H        -0.389628        -1.075932        -0.452975
