19
Iteration:   974charge 0 multiplicity 1
 C         1.191149         3.050863         0.346022
 C         1.951327         1.720559         0.017140
 C         3.220018         1.375940         0.879971
 O         3.581476         0.010768         0.451934
 C         2.689573        -0.041182        -0.657443
 C         2.516088         1.310417        -1.362404
 O         1.233334         0.969830        -1.819065
 C         1.212265         0.444144        -0.408405
 C         0.020486        -0.258157         0.197474
 H         0.714695         3.034011         1.304003
 H         1.880477         3.952520         0.149561
 H         0.331668         3.171257        -0.468681
 H         4.096947         2.051038         0.670453
 H         3.036071         1.479338         1.932580
 H         2.814598        -0.924317        -1.270814
 H         3.318772         1.960426        -1.918672
 H         0.223210        -0.454619         1.217176
 H        -0.935534         0.305508         0.207820
 H        -0.046358        -1.318583        -0.279406
