19
Iteration:   865
 C         1.271187         3.016391         0.151412
 C         2.032361         1.737907         0.063456
 C         2.988900         1.183361         1.115107
 O         3.687381         0.115851         0.410012
 C         2.867621        -0.045637        -0.800129
 C         2.409086         1.358713        -1.419109
 O         1.057836         0.986000        -1.718103
 C         1.284318         0.389755        -0.407516
 C         0.083804        -0.194789         0.252204
 H         0.586015         3.197172         0.906692
 H         2.055196         3.847889         0.127533
 H         0.670218         3.232261        -0.858219
 H         3.796390         1.862314         1.653497
 H         2.486818         0.691253         1.879578
 H         3.113961        -0.877923        -1.408585
 H         3.134305         1.983841        -2.093703
 H         0.308493        -0.666187         1.119693
 H        -0.606882         0.646089         0.435526
 H        -0.630298        -0.715394        -0.476762
