19
Iteration:   948charge 0 multiplicity 1
 C         1.261174         3.041572         0.401014
 C         2.087099         1.845298        -0.021959
 C         3.288819         1.424616         0.879146
 O         3.311883         0.036266         0.575247
 C         2.658551        -0.036356        -0.662706
 C         2.471329         1.339831        -1.434611
 O         1.151556         0.932548        -1.832724
 C         1.274298         0.409775        -0.475861
 C         0.161183        -0.345670         0.165810
 H         0.799587         2.953272         1.419828
 H         1.739275         3.998553         0.336928
 H         0.475626         3.046688        -0.341695
 H         4.204336         1.864249         0.580659
 H         3.207734         1.616912         2.033525
 H         2.898691        -0.933401        -1.218132
 H         3.239648         1.795414        -2.040484
 H         0.410946        -1.052822         1.096489
 H        -0.672177         0.364642         0.416977
 H        -0.076533        -1.121265        -0.555937
