19
Iteration:   141charge 0 multiplicity 1
 C         1.141080         2.957779         0.260294
 C         1.943688         1.708233        -0.014385
 C         3.069954         1.294195         1.003213
 O         3.513873         0.082358         0.495762
 C         2.777099        -0.055811        -0.670034
 C         2.622642         1.363908        -1.373736
 O         1.241249         0.977488        -1.945116
 C         1.271110         0.435913        -0.472034
 C         0.099703        -0.211223         0.295686
 H         1.167505         3.142319         1.371221
 H         1.542502         3.850746        -0.251967
 H         0.087825         2.863327        -0.099351
 H         3.886122         2.140358         0.902924
 H         2.892862         1.305859         2.121177
 H         2.912892        -0.917018        -1.208110
 H         3.267209         1.994113        -1.866158
 H         0.176011        -0.336685         1.497252
 H        -0.827335         0.457654         0.181926
 H        -0.205616        -1.196142         0.001862
