19
Iteration:  1874charge 0 multiplicity 1
 C         1.269838         3.080335         0.121527
 C         1.937065         1.697217         0.032654
 C         3.059073         1.326722         1.071977
 O         3.752176         0.159165         0.407884
 C         2.757750        -0.073022        -0.653284
 C         2.480969         1.274456        -1.319587
 O         1.144257         0.933374        -1.841748
 C         1.243440         0.423937        -0.373958
 C        -0.013138        -0.230003         0.174232
 H         0.512967         2.983084         1.018053
 H         1.964778         3.768451         0.555472
 H         0.793133         3.397477        -0.735094
 H         3.743643         2.201881         1.421374
 H         2.691104         0.872429         1.939572
 H         3.030171        -1.083723        -1.229258
 H         3.178443         1.871295        -1.897562
 H         0.099296        -0.516787         1.213582
 H        -0.890414         0.446301         0.156529
 H        -0.198818        -1.234028        -0.330370
