19
Iteration:   517
 C         1.220600         2.990798         0.418911
 C         2.057475         1.745615         0.043306
 C         3.246233         1.405833         0.958115
 O         3.418810         0.038066         0.539050
 C         2.645484        -0.033104        -0.704015
 C         2.597097         1.243743        -1.423053
 O         1.148709         1.036934        -1.934676
 C         1.225888         0.536648        -0.430348
 C         0.102953        -0.348811         0.165565
 H         0.725312         2.809566         1.354061
 H         1.843953         3.920813         0.512127
 H         0.390609         3.354938        -0.332166
 H         3.914080         2.172129         0.626010
 H         3.318659         1.297980         2.086316
 H         2.857739        -0.940327        -1.126705
 H         3.350797         1.737950        -2.106465
 H         0.633164        -0.753642         0.966982
 H        -0.853261         0.188257         0.313307
 H        -0.334331        -1.292405        -0.489264
