19
Iteration:  4561charge 0 multiplicity 1
 C         1.292145         3.076423         0.195700
 C         1.964314         1.749865         0.092312
 C         3.051386         1.229372         1.103973
 O         3.634969         0.062299         0.464538
 C         2.796554         0.010928        -0.686790
 C         2.458505         1.430770        -1.305714
 O         1.145567         0.920611        -1.823184
 C         1.257189         0.358668        -0.458390
 C         0.020585        -0.240295         0.082863
 H         0.561926         3.109366         1.048112
 H         2.126322         3.637404         0.381092
 H         0.777605         3.198036        -0.741899
 H         3.748408         2.113720         1.145924
 H         2.765651         1.062099         2.235089
 H         3.156818        -0.730418        -1.511852
 H         3.240795         1.883675        -1.977957
 H         0.217282        -0.816009         1.002008
 H        -0.765693         0.450423         0.420295
 H        -0.324470        -0.845073        -0.729702
