19
Iteration:   773charge 0 multiplicity 1
 C         1.324549         3.036562         0.361329
 C         2.037244         1.765277        -0.009888
 C         3.148294         1.329260         1.011270
 O         3.516207         0.030689         0.495310
 C         2.732845        -0.059711        -0.683427
 C         2.448914         1.382553        -1.465992
 O         1.074913         0.939642        -1.783613
 C         1.277661         0.467154        -0.422057
 C         0.128354        -0.282599         0.103163
 H         0.732908         3.045743         1.420584
 H         2.003042         3.891925         0.339465
 H         0.613212         3.290307        -0.359614
 H         3.972894         2.077398         0.934081
 H         2.740846         1.392932         2.092042
 H         2.883160        -1.086436        -1.214886
 H         3.133877         1.869122        -2.117265
 H         0.108445        -0.420008         1.250749
 H        -0.782162         0.127965        -0.290294
 H         0.040488        -1.197330        -0.356530
