19
Iteration:  2831charge 0 multiplicity 1
 C         1.223801         3.036271         0.206913
 C         2.011412         1.800161         0.027049
 C         3.002685         1.271601         1.063973
 O         3.617039         0.056663         0.430129
 C         2.782740        -0.072906        -0.694770
 C         2.504872         1.397698        -1.418464
 O         1.202550         0.908735        -1.848855
 C         1.287180         0.376168        -0.436606
 C         0.062142        -0.173757         0.298905
 H         0.721004         3.122978         1.102072
 H         1.793845         3.966554         0.081409
 H         0.442017         3.062189        -0.673858
 H         3.853161         1.956317         1.276219
 H         2.436585         0.972172         1.944737
 H         2.999026        -1.084250        -1.144501
 H         2.931018         2.123295        -2.193358
 H         0.418533        -0.631610         1.231559
 H        -0.694138         0.552439         0.676215
 H        -0.423277        -0.931309        -0.350306
