19
Iteration:  2255
 C         1.170608         3.002158         0.162549
 C         1.971099         1.730334        -0.024972
 C         3.076608         1.254938         1.068708
 O         3.640387         0.132967         0.439401
 C         2.749264        -0.017388        -0.821333
 C         2.573941         1.293756        -1.343606
 O         1.211205         0.901557        -1.819903
 C         1.255778         0.464980        -0.344145
 C         0.034839        -0.174465         0.276047
 H         0.642363         3.040149         1.120654
 H         1.886438         3.922817         0.113455
 H         0.602587         3.113862        -0.672324
 H         3.830911         1.980540         1.381111
 H         2.471854         0.829661         1.985933
 H         2.800757        -0.904085        -1.289670
 H         3.120095         1.977474        -1.921983
 H         0.350187        -0.541596         1.247316
 H        -0.767668         0.650337         0.452485
 H        -0.458993        -1.093384        -0.194702
