19
Iteration:  2370
 C         1.284266         3.079870         0.195110
 C         2.048976         1.822056         0.003938
 C         3.053029         1.391360         1.085910
 O         3.471783         0.042535         0.477295
 C         2.764681        -0.113995        -0.705204
 C         2.519329         1.375026        -1.428219
 O         1.118777         0.962306        -1.777074
 C         1.265123         0.397656        -0.448717
 C         0.115058        -0.327821         0.235650
 H         0.908204         3.228946         1.177446
 H         1.981857         3.830456         0.109887
 H         0.650911         3.329826        -0.729246
 H         4.031180         1.987679         1.130270
 H         2.670392         1.170220         2.069796
 H         3.022606        -1.154837        -1.272956
 H         2.977070         1.982746        -2.271763
 H         0.607907        -0.755591         1.169121
 H        -0.803810         0.182025         0.451941
 H        -0.025920        -1.186700        -0.479139
