19
Iteration:  3564
 C         1.176776         3.038179         0.282021
 C         2.087361         1.837408         0.002806
 C         3.150502         1.316373         1.002379
 O         3.425473         0.029243         0.484613
 C         2.660780        -0.067020        -0.755069
 C         2.598653         1.307843        -1.402493
 O         1.247703         0.954022        -1.785956
 C         1.273738         0.484063        -0.432375
 C         0.091703        -0.256131         0.204733
 H         0.874653         2.820186         1.330199
 H         1.384155         4.020249         0.275367
 H         0.252410         2.819176        -0.373265
 H         4.026754         2.064718         1.000998
 H         2.775242         1.291529         2.061072
 H         2.882528        -0.943244        -1.346954
 H         3.286201         1.810671        -2.058632
 H         0.354428        -0.798570         1.180147
 H        -0.841270         0.321568         0.297998
 H        -0.155610        -0.884737        -0.552207
