19
Iteration:  1052charge 0 multiplicity 1
 C         1.260090         3.047447         0.253275
 C         1.974925         1.706775         0.096286
 C         3.042716         1.285604         1.069613
 O         3.525429         0.114803         0.366473
 C         2.659324        -0.005918        -0.695983
 C         2.541264         1.330549        -1.389413
 O         1.204163         0.930089        -1.906420
 C         1.274875         0.400240        -0.448301
 C         0.168063        -0.227020         0.317365
 H         0.549296         3.005141         1.133514
 H         2.063277         3.854261         0.360888
 H         0.653517         3.261457        -0.653555
 H         3.914097         2.062528         1.074661
 H         2.632244         1.137288         2.055747
 H         2.918239        -0.967526        -1.344298
 H         3.065396         1.748516        -2.311470
 H         0.506345        -0.171748         1.360616
 H        -0.756626         0.313613         0.282974
 H        -0.192669        -1.234076         0.058254
