19
Iteration:  4286charge 0 multiplicity 1
 C         1.300559         3.095831         0.251070
 C         1.935903         1.759855         0.063827
 C         3.027097         1.285261         1.088198
 O         3.584372         0.106062         0.360820
 C         2.753397         0.001678        -0.704792
 C         2.558298         1.366006        -1.282944
 O         1.175876         0.911867        -1.800099
 C         1.328856         0.364934        -0.476140
 C        -0.000999        -0.268684         0.158436
 H         0.462527         2.947033         1.016878
 H         2.056703         3.861801         0.540377
 H         0.782845         3.198036        -0.684338
 H         3.891068         1.868595         1.289924
 H         2.567504         0.985393         2.014596
 H         3.135161        -0.875892        -1.187721
 H         3.157962         1.898092        -2.053488
 H         0.105476        -0.536860         1.158550
 H        -0.722875         0.514883        -0.003014
 H        -0.353649        -1.224456        -0.418953
