19
Iteration:  4101charge 0 multiplicity 1
 C         1.194064         2.977018         0.370282
 C         2.043404         1.796931        -0.010774
 C         3.196563         1.352344         0.930412
 O         3.457986         0.035331         0.560328
 C         2.692764        -0.055393        -0.671541
 C         2.571951         1.330665        -1.419671
 O         1.182940         0.990252        -1.833875
 C         1.254519         0.466726        -0.479842
 C         0.104626        -0.290277         0.149413
 H         0.477367         2.781383         1.218802
 H         1.750052         3.833458         0.713494
 H         0.655211         3.236128        -0.513619
 H         3.981054         2.168023         0.778307
 H         2.822094         1.460193         1.991113
 H         2.827523        -1.006931        -1.118419
 H         3.328017         1.860367        -2.132318
 H         0.285006        -0.625801         1.128434
 H        -0.765243         0.353515         0.168210
 H        -0.228682        -1.225038        -0.458649
