19
Iteration:  4573
 C         1.288536         3.039964         0.250110
 C         1.953903         1.656295         0.175164
 C         3.083340         1.292878         1.110216
 O         3.602848         0.136874         0.439863
 C         2.751239        -0.026867        -0.765013
 C         2.505741         1.335089        -1.323168
 O         1.202319         0.924490        -1.822048
 C         1.254576         0.414716        -0.470168
 C         0.016318        -0.219401         0.065904
 H         0.473769         3.168746         1.000497
 H         1.796936         3.887779         0.295607
 H         0.797907         3.238399        -0.735629
 H         3.937704         1.992525         1.259026
 H         2.569740         0.968066         2.134858
 H         3.051835        -0.962422        -1.301085
 H         3.071786         2.012906        -2.054714
 H         0.421050        -0.803685         0.954707
 H        -0.610843         0.647793         0.373546
 H        -0.550814        -0.865853        -0.509510
