19
Iteration:  2725charge 0 multiplicity 1
 C         1.306359         3.062928         0.255942
 C         2.073636         1.789577         0.032735
 C         3.103545         1.416525         1.050899
 O         3.490280         0.003589         0.553035
 C         2.710384        -0.073311        -0.796068
 C         2.539058         1.327793        -1.438668
 O         1.101227         0.976102        -1.857191
 C         1.235924         0.490469        -0.421710
 C         0.119110        -0.350711         0.210113
 H         0.698047         2.928407         1.202418
 H         1.864853         4.091044         0.059395
 H         0.596755         2.995237        -0.581067
 H         3.995716         2.099176         1.159531
 H         2.763938         1.373902         2.094721
 H         3.069220        -0.942698        -1.202879
 H         3.103913         1.927730        -2.121248
 H         0.350069        -0.670297         1.304770
 H        -0.927653         0.097180         0.164784
 H         0.043016        -1.351839        -0.116697
