19
Iteration:  4784charge 0 multiplicity 1
 C         1.110335         2.894133         0.284945
 C         2.119338         1.779438        -0.001365
 C         3.051924         1.320807         1.034344
 O         3.413019        -0.001606         0.527574
 C         2.757340         0.007173        -0.685756
 C         2.583946         1.329541        -1.463645
 O         1.177556         0.965907        -1.836479
 C         1.327414         0.505692        -0.403415
 C         0.188596        -0.162017         0.156761
 H         0.752094         2.746084         1.307039
 H         1.611543         3.882663         0.288033
 H         0.351802         3.073381        -0.542953
 H         3.927673         1.931659         1.231883
 H         2.618126         1.103288         2.073966
 H         2.697340        -0.849357        -1.391468
 H         3.200475         1.801517        -2.179887
 H         0.558777        -0.628678         1.050425
 H        -0.564558         0.596318         0.395331
 H        -0.186856        -1.001756        -0.534332
