19
Iteration:  4445
 C         1.193390         2.989026         0.236742
 C         2.005187         1.755575         0.032228
 C         3.011072         1.277820         1.086579
 O         3.613933         0.091799         0.388143
 C         2.783255        -0.033373        -0.709594
 C         2.577977         1.282770        -1.388674
 O         1.221172         1.017499        -1.802666
 C         1.261497         0.452482        -0.381361
 C         0.041034        -0.220510         0.133192
 H         0.500719         2.897477         1.083709
 H         1.909720         3.833414         0.532483
 H         0.411839         3.141489        -0.586346
 H         3.732717         2.059641         1.436501
 H         2.669270         0.689180         1.913998
 H         2.811708        -0.978922        -1.120573
 H         3.362221         1.852059        -1.895577
 H        -0.008757        -0.607816         1.186394
 H        -0.774022         0.548302         0.202675
 H        -0.367024        -1.043894        -0.418340
