19
Iteration:  3110
 C         1.312499         3.081450         0.204237
 C         1.952309         1.773484         0.035509
 C         3.003321         1.343951         0.963122
 O         3.552495        -0.000798         0.465027
 C         2.762890        -0.008650        -0.675014
 C         2.482860         1.375851        -1.321216
 O         1.178687         0.916532        -1.794382
 C         1.269445         0.395448        -0.399254
 C         0.118302        -0.273668         0.166471
 H         0.950942         3.223940         1.260230
 H         2.075843         3.916799         0.017884
 H         0.541207         3.257263        -0.489343
 H         3.851919         2.092776         1.119262
 H         2.508989         1.112666         1.904889
 H         2.940783        -0.850478        -1.490192
 H         3.206167         1.907117        -1.957305
 H         0.273773        -0.453540         1.241298
 H        -0.734574         0.408274         0.107611
 H        -0.053242        -1.344845        -0.311162
