19
Iteration:  4067charge 0 multiplicity 1
 C         1.090703         2.950834         0.312951
 C         2.094557         1.754917         0.021619
 C         3.117862         1.282225         0.969108
 O         3.570289         0.039172         0.495458
 C         2.712638        -0.034388        -0.690214
 C         2.579018         1.353171        -1.404308
 O         1.176021         0.974372        -1.826162
 C         1.298108         0.415256        -0.419916
 C         0.073780        -0.142245         0.180479
 H         0.533966         2.826431         1.245002
 H         1.596203         3.911648         0.166245
 H         0.399911         2.902390        -0.545352
 H         3.948381         2.071788         1.085878
 H         2.763675         1.061607         2.015652
 H         2.735893        -0.966749        -1.143669
 H         3.243563         1.922833        -2.143912
 H         0.262477        -0.530142         1.150360
 H        -0.654508         0.689214         0.210380
 H        -0.282903        -0.883550        -0.566731
