19
Iteration:  1360
 C         1.119990         2.950798         0.215120
 C         2.055923         1.741994        -0.036552
 C         3.196204         1.441492         0.889505
 O         3.372651        -0.026675         0.577828
 C         2.673660        -0.112541        -0.649446
 C         2.549071         1.351508        -1.388026
 O         1.231681         1.053278        -1.839886
 C         1.277144         0.463862        -0.441176
 C         0.179999        -0.245517         0.282552
 H         0.233801         2.882078         0.906749
 H         1.627308         3.811871         0.584737
 H         0.676414         3.060832        -0.676267
 H         4.003046         2.020349         0.559388
 H         2.994108         1.585608         2.012521
 H         3.062548        -1.021889        -1.193317
 H         3.153660         1.739969        -2.104910
 H         0.878036        -0.770522         0.999650
 H        -0.604860         0.399018         0.773615
 H        -0.240477        -1.050055        -0.313256
