19
Iteration:  2138charge 0 multiplicity 1
 C         1.276587         3.052215         0.155976
 C         2.036853         1.731386         0.049790
 C         3.032901         1.231281         1.098961
 O         3.638561         0.191201         0.415606
 C         2.739708         0.000216        -0.620022
 C         2.502478         1.337710        -1.411345
 O         1.109279         0.894246        -1.778607
 C         1.306337         0.367318        -0.400352
 C         0.055168        -0.251759         0.177564
 H         0.718315         3.196645         1.167471
 H         1.908393         3.909526         0.063035
 H         0.584937         3.193300        -0.744326
 H         3.810141         1.987588         1.273458
 H         2.550582         0.943870         1.980774
 H         2.943399        -0.855976        -1.323460
 H         3.023979         1.886273        -2.181995
 H         0.076919        -0.577803         1.193560
 H        -0.644478         0.566485        -0.001487
 H        -0.251601        -1.058294        -0.403965
