19
Iteration:  4747
 C         1.239865         2.992172         0.303140
 C         1.928335         1.817046        -0.010543
 C         3.056036         1.335643         0.964290
 O         3.503544         0.002007         0.514236
 C         2.732911         0.001338        -0.673469
 C         2.581242         1.320116        -1.297570
 O         1.224466         0.972377        -1.864203
 C         1.286095         0.437857        -0.485660
 C         0.082980        -0.269631         0.127714
 H         0.628217         2.974908         1.286012
 H         1.989584         3.798710         0.333575
 H         0.374245         3.171711        -0.442016
 H         4.008612         1.966632         0.908785
 H         2.741904         1.232583         1.983648
 H         3.010393        -0.857468        -1.239474
 H         3.324484         1.987231        -1.910542
 H         0.615196        -0.647152         1.134532
 H        -0.707714         0.416102         0.539399
 H        -0.442330        -1.068840        -0.315990
