19
Iteration:   777charge 0 multiplicity 1
 C         1.330860         3.005919         0.377757
 C         2.031720         1.764653        -0.015456
 C         3.150132         1.374435         0.996095
 O         3.467497         0.011849         0.529962
 C         2.752037        -0.055468        -0.697249
 C         2.433459         1.388082        -1.456570
 O         1.085510         0.925572        -1.774333
 C         1.290279         0.492763        -0.445170
 C         0.125552        -0.277440         0.110121
 H         0.937749         2.891886         1.310901
 H         2.066409         3.854187         0.440620
 H         0.483510         3.272853        -0.363248
 H         4.027828         2.129611         0.783780
 H         2.912083         1.320484         2.028313
 H         2.870531        -0.941131        -1.216346
 H         3.136937         1.905345        -2.216601
 H         0.099377        -0.434611         1.129333
 H        -0.782950         0.265396        -0.304911
 H         0.107417        -1.398838        -0.294497
