19
Iteration:   122charge 0 multiplicity 1
 C         1.028114         2.924928         0.274672
 C         2.028121         1.769008         0.037274
 C         3.178095         1.451821         0.918618
 O         3.354449        -0.034214         0.555983
 C         2.674380        -0.048990        -0.702276
 C         2.566575         1.294121        -1.371896
 O         1.326007         1.048271        -1.901850
 C         1.305751         0.422438        -0.458253
 C         0.198038        -0.210894         0.279610
 H         0.816435         3.149887         1.336453
 H         1.358240         3.905896        -0.236167
 H         0.129021         2.701290        -0.140036
 H         4.153894         1.975241         0.760542
 H         2.965000         1.451803         1.892353
 H         2.847792        -0.916783        -1.292136
 H         3.360051         1.764213        -2.008391
 H         0.663311        -0.321414         1.181746
 H        -0.775181         0.194904         0.224208
 H        -0.074430        -1.177748        -0.099718
