19
Iteration:  2459
 C         1.201376         2.941536         0.311338
 C         2.044005         1.812369         0.000185
 C         3.177181         1.389203         0.922092
 O         3.485573         0.045388         0.572871
 C         2.705376        -0.039284        -0.734547
 C         2.543356         1.296947        -1.404626
 O         1.172713         0.934407        -1.825702
 C         1.289060         0.464481        -0.433184
 C         0.083508        -0.219381         0.218243
 H         0.752625         2.686124         1.217007
 H         1.660111         3.871417         0.533086
 H         0.381521         3.094327        -0.498104
 H         4.071791         2.063560         0.681493
 H         2.981697         1.370371         2.012698
 H         2.844532        -0.919934        -1.367055
 H         3.239031         1.712868        -2.169372
 H         0.151302        -0.529398         1.198931
 H        -0.785438         0.455215         0.236066
 H        -0.273163        -1.051025        -0.531946
