19
Iteration:  2747charge 0 multiplicity 1
 C         1.210487         3.056892         0.219984
 C         1.998304         1.772802         0.034746
 C         3.155695         1.355960         0.870315
 O         3.426613         0.029562         0.560658
 C         2.690479        -0.061012        -0.647041
 C         2.517739         1.339750        -1.390998
 O         1.163357         1.006303        -1.769950
 C         1.319515         0.424480        -0.408288
 C         0.177530        -0.333736         0.132222
 H         0.728107         2.894434         1.242174
 H         2.086286         3.872629         0.249483
 H         0.531899         3.436199        -0.544243
 H         4.089964         1.985946         0.803696
 H         2.895193         1.452338         1.936584
 H         2.922593        -0.942538        -1.131118
 H         2.960673         1.862623        -2.196738
 H         0.395324        -0.765850         1.195857
 H        -0.695769         0.391331         0.195234
 H        -0.114326        -1.242405        -0.312276
