19
Iteration:  3109charge 0 multiplicity 1
 C         1.322307         3.080603         0.208765
 C         1.945741         1.770997         0.032727
 C         3.004355         1.353855         0.968428
 O         3.557032         0.001557         0.464522
 C         2.758290        -0.011043        -0.678891
 C         2.474605         1.377179        -1.321407
 O         1.183474         0.920608        -1.794572
 C         1.266392         0.384172        -0.397507
 C         0.115493        -0.273245         0.165461
 H         0.936528         3.230335         1.237167
 H         2.105626         3.943680         0.017651
 H         0.524299         3.239314        -0.498832
 H         3.856293         2.078889         1.137705
 H         2.504558         1.110731         1.881700
 H         2.976409        -0.850067        -1.509039
 H         3.223370         1.879771        -1.955420
 H         0.278173        -0.478779         1.261375
 H        -0.759865         0.404239         0.087085
 H        -0.059497        -1.326498        -0.289544
