19
Iteration:  2605
 C         1.226663         2.978815         0.295910
 C         2.050956         1.743949         0.070481
 C         3.166039         1.398620         0.864980
 O         3.432871         0.037577         0.528678
 C         2.682516        -0.029323        -0.617986
 C         2.520929         1.369165        -1.414754
 O         1.185599         0.937561        -1.833982
 C         1.264628         0.450903        -0.396783
 C         0.130787        -0.252834         0.148558
 H         0.588045         2.819237         1.209025
 H         1.782571         3.993772         0.246474
 H         0.694558         3.105728        -0.583779
 H         4.135695         1.955138         0.668147
 H         2.780656         1.359898         1.943436
 H         2.985557        -0.833640        -1.232479
 H         3.227505         1.687457        -2.182893
 H         0.489717        -0.856418         1.099751
 H        -0.654142         0.471727         0.577851
 H        -0.358139        -1.035424        -0.444742
