19
Iteration:  3586
 C         1.254463         3.031414         0.275543
 C         1.979115         1.745501         0.018747
 C         3.041643         1.301367         1.039389
 O         3.532565         0.001974         0.522603
 C         2.708232        -0.069134        -0.682895
 C         2.512815         1.351551        -1.446635
 O         1.129166         1.011085        -1.832267
 C         1.324278         0.464588        -0.457310
 C         0.178360        -0.259003         0.166129
 H         0.993048         3.346241         1.298692
 H         1.828337         3.782756        -0.056459
 H         0.416319         3.083961        -0.475158
 H         3.920393         2.018138         1.274495
 H         2.502943         1.115326         2.022466
 H         2.878979        -0.922711        -1.329007
 H         3.235215         1.917523        -2.002917
 H         0.586948        -0.600240         1.173969
 H        -0.676556         0.433662         0.342391
 H        -0.180598        -1.000761        -0.432323
