19
Iteration:   257
 C         1.094173         2.982007         0.259962
 C         2.088337         1.858668        -0.027956
 C         3.207321         1.339799         0.983871
 O         3.312100        -0.029868         0.587984
 C         2.685996        -0.016830        -0.663509
 C         2.601180         1.354258        -1.446406
 O         1.163823         0.970440        -1.826765
 C         1.287390         0.502902        -0.475339
 C         0.263901        -0.283183         0.211462
 H         0.543707         2.748196         1.174727
 H         1.617733         3.906566         0.474993
 H         0.367325         3.174758        -0.635091
 H         4.141206         1.935726         0.981678
 H         2.902726         1.276838         2.044418
 H         2.709446        -0.987124        -1.326731
 H         3.289183         1.805797        -2.299412
 H         0.849400        -0.796211         1.001665
 H        -0.564327         0.334978         0.610355
 H        -0.135433        -1.116706        -0.490978
