19
Iteration:   726charge 0 multiplicity 1
 C         1.350033         3.014452         0.095641
 C         1.951493         1.701603         0.157649
 C         3.002769         1.149636         1.095784
 O         3.673544         0.137699         0.365245
 C         2.791992        -0.019225        -0.768827
 C         2.463911         1.401378        -1.309907
 O         1.086327         1.008872        -1.806563
 C         1.269185         0.419339        -0.415198
 C         0.092431        -0.232393         0.262598
 H         0.618795         3.294624         0.939762
 H         2.189289         3.741809         0.094979
 H         0.821536         3.111035        -0.925196
 H         3.571861         1.894061         1.564125
 H         2.525514         0.482910         1.919847
 H         2.956685        -0.831101        -1.454919
 H         2.998720         2.110470        -1.951992
 H         0.505063        -0.763506         1.136236
 H        -0.718129         0.480576         0.474784
 H        -0.603482        -0.899401        -0.331785
