19
Iteration:  4431charge 0 multiplicity 1
 C         1.157246         3.028704         0.268422
 C         2.058295         1.744534         0.072061
 C         3.024813         1.240037         1.122566
 O         3.656872         0.186071         0.376871
 C         2.670384        -0.131300        -0.729040
 C         2.636210         1.297887        -1.350704
 O         1.191978         0.972669        -1.800821
 C         1.305310         0.422566        -0.387357
 C        -0.029876        -0.187736         0.127178
 H         0.398039         2.805622         1.152613
 H         1.669983         3.889380         0.532691
 H         0.651844         3.332863        -0.685386
 H         3.878545         1.819238         1.300908
 H         2.397892         1.087432         1.954672
 H         3.030734        -0.998457        -1.421870
 H         3.262239         1.695530        -2.208487
 H         0.301191        -0.693568         1.078578
 H        -0.785450         0.602503         0.059762
 H        -0.166719        -0.872753        -0.637500
