19
Iteration:  1678
 C         1.245588         3.083710         0.278797
 C         2.016226         1.756679         0.003453
 C         3.048962         1.355036         1.013978
 O         3.517981         0.086869         0.495705
 C         2.734274        -0.016416        -0.721802
 C         2.530935         1.287402        -1.405181
 O         1.155243         0.859759        -1.871808
 C         1.330377         0.451392        -0.376847
 C         0.111026        -0.234170         0.193351
 H         0.656387         3.062068         1.292495
 H         1.895097         3.954123         0.248201
 H         0.426134         3.197514        -0.475510
 H         3.932223         2.009672         1.105416
 H         2.656535         1.187553         2.107489
 H         2.954248        -1.059773        -1.189449
 H         3.233794         1.729324        -2.008643
 H         0.111718        -0.163539         1.262742
 H        -0.845747         0.220935        -0.139587
 H         0.081961        -1.307878        -0.199690
