19
Iteration:  1526charge 0 multiplicity 1
 C         1.152881         3.019436         0.271813
 C         2.037086         1.781920         0.019740
 C         3.191387         1.393988         0.964942
 O         3.418148         0.049134         0.538388
 C         2.705841        -0.044754        -0.666236
 C         2.558965         1.344604        -1.432227
 O         1.192452         0.873929        -1.857919
 C         1.298279         0.433379        -0.444045
 C         0.127733        -0.220849         0.230799
 H         0.319657         2.846202         0.983389
 H         1.722544         3.801569         0.696260
 H         0.773902         3.451617        -0.754309
 H         4.062640         1.966884         0.805226
 H         2.993800         1.377218         2.078697
 H         2.870667        -1.070453        -1.108889
 H         3.097749         1.894550        -2.225458
 H         0.523100        -0.793243         1.020749
 H        -0.676000         0.506270         0.528318
 H        -0.244457        -1.063611        -0.430376
