19
Iteration:   800
 C         1.231619         3.020242         0.537205
 C         2.035774         1.789703        -0.022001
 C         3.269114         1.405083         0.822669
 O         3.316649         0.023259         0.562787
 C         2.703777        -0.055116        -0.724746
 C         2.509347         1.380582        -1.399905
 O         1.212660         0.932521        -1.880680
 C         1.279251         0.397921        -0.473941
 C         0.097017        -0.293520         0.197924
 H         0.857239         2.926297         1.464802
 H         1.867714         3.942185         0.518376
 H         0.379165         3.212048        -0.241714
 H         4.224634         1.932925         0.360217
 H         3.116675         1.692300         1.837898
 H         2.973660        -0.913154        -1.261362
 H         3.355033         1.918905        -1.999293
 H         0.157963        -0.347050         1.243790
 H        -0.818707         0.241785        -0.201859
 H        -0.019614        -1.459905        -0.062921
