19
Iteration:  2401
 C         1.277123         3.053879         0.136070
 C         1.988987         1.752688         0.035813
 C         2.956090         1.268128         1.070111
 O         3.646851         0.126936         0.409751
 C         2.704062        -0.096495        -0.717753
 C         2.487867         1.408109        -1.376016
 O         1.196879         0.919582        -1.797080
 C         1.268829         0.440537        -0.397287
 C         0.083083        -0.227041         0.293026
 H         0.795501         3.279042         1.130106
 H         2.089222         3.704916        -0.030292
 H         0.651231         3.261246        -0.780773
 H         3.844715         1.873370         1.390914
 H         2.509756         0.784250         1.983521
 H         2.890679        -1.145661        -1.330073
 H         3.081685         2.005967        -2.126859
 H         0.493034        -0.971842         1.103964
 H        -0.746103         0.417854         0.551716
 H        -0.218805        -0.965827        -0.404254
