19
Iteration:  1672charge 0 multiplicity 1
 C         1.197468         3.073922         0.319463
 C         2.029178         1.802201         0.037199
 C         3.080456         1.371510         0.980650
 O         3.500150         0.038038         0.523600
 C         2.744653        -0.057022        -0.686198
 C         2.563909         1.246242        -1.414621
 O         1.184242         0.897045        -1.878267
 C         1.237088         0.500587        -0.437754
 C         0.125286        -0.259561         0.185326
 H         0.817198         3.063134         1.271690
 H         1.825788         3.968249         0.067833
 H         0.425919         3.187298        -0.517766
 H         3.912575         2.104571         0.947832
 H         2.677075         1.329729         1.945689
 H         2.903074        -0.951059        -1.197154
 H         3.230007         1.899103        -2.165696
 H         0.266699        -0.347629         1.319007
 H        -0.860635         0.139072        -0.028445
 H         0.196287        -1.310635         0.040311
