19
Iteration:  4162charge 0 multiplicity 1
 C         1.339399         3.127224         0.215871
 C         2.028974         1.709293         0.017816
 C         2.965667         1.244047         1.119209
 O         3.652880         0.130997         0.480457
 C         2.681230        -0.067786        -0.717890
 C         2.422569         1.323824        -1.403377
 O         1.132658         1.029192        -1.787012
 C         1.293830         0.457401        -0.446790
 C         0.156499        -0.342046         0.141702
 H         0.727395         3.201336         1.062697
 H         2.199489         3.880392         0.013768
 H         0.476848         3.216299        -0.564142
 H         3.662650         1.909400         1.576727
 H         2.355142         0.893107         1.936213
 H         2.847665        -1.047082        -1.168934
 H         3.097279         1.751394        -2.039825
 H         0.331800        -0.832681         1.208794
 H        -0.806105         0.293268         0.161440
 H        -0.032795        -1.064669        -0.581680
