19
Iteration:  3571
 C         1.165591         3.014395         0.247601
 C         2.085765         1.838699         0.013016
 C         3.097952         1.323841         1.038151
 O         3.417219         0.015644         0.440699
 C         2.709379        -0.056202        -0.727443
 C         2.606296         1.319272        -1.388002
 O         1.231097         0.972065        -1.787445
 C         1.255761         0.466458        -0.396387
 C         0.153603        -0.228600         0.182542
 H         0.937591         2.848280         1.300568
 H         1.693218         4.053604         0.163591
 H         0.143023         3.020919        -0.171403
 H         4.014815         1.941192         0.923233
 H         2.682774         1.186726         2.072412
 H         2.844441        -1.058442        -1.136148
 H         3.093683         1.786491        -2.296288
 H         0.343424        -0.769554         1.104778
 H        -0.751481         0.330152         0.352863
 H        -0.182475        -1.092699        -0.582232
