19
Iteration:  2597charge 0 multiplicity 1
 C         1.226536         3.043565         0.248467
 C         1.998440         1.748405        -0.012839
 C         3.113738         1.389118         0.941506
 O         3.442159         0.021261         0.556778
 C         2.750519        -0.089276        -0.689239
 C         2.536427         1.325650        -1.424090
 O         1.164791         0.971615        -1.772210
 C         1.315225         0.447779        -0.436895
 C         0.109439        -0.257822         0.184246
 H         0.692366         2.944617         1.276523
 H         1.917805         3.879631         0.422907
 H         0.502813         3.202041        -0.556174
 H         3.900660         2.033502         0.632736
 H         3.060390         1.345188         2.059329
 H         2.983793        -0.980856        -1.373501
 H         3.076583         1.965399        -2.097417
 H         0.565883        -0.766576         1.063399
 H        -0.687975         0.326943         0.601402
 H        -0.250419        -0.945822        -0.495650
