19
Iteration:  1466charge 0 multiplicity 1
 C         1.252564         3.118261         0.157025
 C         2.008385         1.804041         0.004533
 C         3.038139         1.277886         1.045295
 O         3.567213        -0.004569         0.485844
 C         2.779745         0.018088        -0.701622
 C         2.498815         1.369811        -1.319621
 O         1.105521         0.871022        -1.814458
 C         1.325307         0.392589        -0.417151
 C         0.120070        -0.246501         0.202246
 H         1.114830         3.381548         1.310973
 H         1.907650         3.894072        -0.475289
 H         0.275553         3.175415        -0.285314
 H         3.909218         1.976983         1.309865
 H         2.406508         1.101031         1.944150
 H         2.935278        -0.790090        -1.466888
 H         3.068932         1.993202        -2.068151
 H         0.161435        -0.168796         1.364404
 H        -0.844965         0.193102        -0.019659
 H         0.108533        -1.256083        -0.185172
