19
Iteration:   249charge 0 multiplicity 1
 C         1.178657         3.038271         0.220555
 C         2.054485         1.822910        -0.003105
 C         3.190261         1.379302         0.928381
 O         3.306480        -0.075516         0.615679
 C         2.717056        -0.044262        -0.691014
 C         2.569877         1.407363        -1.413497
 O         1.124679         0.936902        -1.806288
 C         1.332152         0.566479        -0.458391
 C         0.240100        -0.313103         0.180579
 H         0.497535         2.601073         1.024705
 H         1.481272         3.955418         0.659052
 H         0.495948         3.158035        -0.673402
 H         4.098061         1.886155         0.810052
 H         2.891504         1.286911         2.045497
 H         2.970606        -0.883300        -1.204833
 H         3.167786         1.849184        -2.163583
 H         0.692074        -0.929570         1.134218
 H        -0.623004         0.199206         0.678166
 H         0.112826        -1.005400        -0.602562
