19
Iteration:   220charge 0 multiplicity 1
 C         1.320074         3.137282         0.179501
 C         1.913410         1.729775         0.091521
 C         3.163066         1.402472         0.999302
 O         3.493343         0.092416         0.496132
 C         2.704398        -0.044484        -0.676745
 C         2.524652         1.358251        -1.352746
 O         1.159114         0.974735        -1.812277
 C         1.246219         0.377046        -0.437284
 C         0.109085        -0.434012         0.149264
 H         0.424684         3.092973         0.819241
 H         2.076202         3.822709         0.731346
 H         1.011017         3.561545        -0.713849
 H         4.011743         2.216958         0.950065
 H         2.858008         1.214275         2.035528
 H         3.002413        -0.994877        -1.196130
 H         3.214550         1.808788        -2.088878
 H         0.446014        -0.846398         1.087140
 H        -0.825325         0.159829         0.298364
 H        -0.352559        -1.244448        -0.478615
