19
Iteration:  1629charge 0 multiplicity 1
 C         1.232364         3.050254         0.238693
 C         2.010955         1.753736         0.036947
 C         3.133939         1.430127         0.963314
 O         3.319690        -0.012236         0.600179
 C         2.738834        -0.038324        -0.734933
 C         2.522699         1.336936        -1.400026
 O         1.213131         0.968241        -1.842027
 C         1.316375         0.471941        -0.433197
 C         0.178252        -0.342322         0.229072
 H         0.860600         3.292221         1.203433
 H         1.648031         3.922883        -0.348911
 H         0.326846         2.921420        -0.408031
 H         4.165757         1.922629         0.758645
 H         2.981542         1.411019         1.977663
 H         3.043343        -0.870015        -1.275160
 H         3.161503         1.884764        -2.277348
 H         0.553433        -0.772535         1.280980
 H        -0.664898         0.328459         0.466918
 H        -0.127749        -1.106064        -0.482467
