19
Iteration:  2913
 C         1.308243         3.123796         0.257324
 C         1.965041         1.782570         0.114202
 C         3.090259         1.403506         1.027698
 O         3.542984         0.060481         0.425175
 C         2.687073        -0.041009        -0.674642
 C         2.490082         1.246105        -1.432312
 O         1.182328         0.890952        -1.835922
 C         1.285973         0.430493        -0.362493
 C         0.088897        -0.302995         0.138018
 H         0.565297         3.195378         1.192187
 H         2.095805         3.958024         0.354427
 H         0.724949         3.333434        -0.610299
 H         3.927998         2.191417         1.053531
 H         2.871691         1.250056         2.131802
 H         2.791647        -0.995094        -1.231461
 H         3.007538         1.959338        -2.039093
 H         0.223294        -0.555858         1.219325
 H        -0.819192         0.246491        -0.131371
 H         0.099808        -1.338897        -0.363317
