19
Iteration:   190
 C         1.383441         3.119280         0.198165
 C         1.928426         1.749342         0.036951
 C         2.991884         1.262838         1.079597
 O         3.733631         0.232950         0.382108
 C         2.759849        -0.017732        -0.634779
 C         2.448632         1.328652        -1.386993
 O         1.156330         0.841225        -1.776343
 C         1.224195         0.432503        -0.324480
 C         0.012184        -0.318273         0.108845
 H         0.732155         3.158430         1.059669
 H         2.256633         3.779419         0.380455
 H         0.843719         3.514216        -0.679537
 H         3.580462         1.981763         1.615867
 H         2.400490         0.795490         1.809291
 H         2.972295        -1.037634        -1.217523
 H         3.089038         1.843926        -2.231180
 H         0.103021        -0.720364         1.040693
 H        -0.922636         0.228662        -0.000528
 H        -0.190383        -1.224910        -0.576921
