19
Iteration:  2877charge 0 multiplicity 1
 C         1.269659         2.974782         0.235006
 C         2.093218         1.778291         0.008263
 C         3.139216         1.441555         1.008306
 O         3.426442        -0.011708         0.546490
 C         2.720185        -0.107147        -0.617022
 C         2.437496         1.360495        -1.461166
 O         1.172532         1.004195        -1.839987
 C         1.272139         0.494943        -0.453495
 C         0.175833        -0.339363         0.186851
 H         0.728579         2.945094         1.160739
 H         1.796490         4.041053         0.220186
 H         0.514992         2.991595        -0.606126
 H         4.116435         2.063665         0.868380
 H         2.737078         1.336229         2.005895
 H         2.869591        -0.906437        -1.200987
 H         3.029630         2.004939        -2.096830
 H         0.250200        -0.392094         1.347498
 H        -0.838636         0.214242         0.229236
 H        -0.000114        -1.242014        -0.294292
