19
Iteration:  2824
 C         1.211347         3.027352         0.173770
 C         2.050177         1.716409         0.009325
 C         3.026121         1.222672         1.081308
 O         3.614580         0.132309         0.479188
 C         2.759199        -0.037933        -0.716508
 C         2.473981         1.384457        -1.452485
 O         1.162637         0.890969        -1.844669
 C         1.335507         0.401543        -0.428668
 C         0.073604        -0.151719         0.281919
 H         0.684778         3.138541         1.192985
 H         1.988945         3.912464         0.204591
 H         0.446056         3.093913        -0.564882
 H         3.846473         1.978790         1.376068
 H         2.466438         0.912875         1.993928
 H         2.818928        -0.888693        -1.285364
 H         3.084859         1.979353        -2.076244
 H         0.340603        -0.831847         1.168781
 H        -0.710552         0.602568         0.571594
 H        -0.472792        -0.844564        -0.304627
