19
Iteration:  1726
 C         1.231372         3.063765         0.140860
 C         1.936987         1.658736         0.068397
 C         3.002444         1.255720         1.118594
 O         3.770202         0.224050         0.344436
 C         2.877119        -0.044669        -0.682649
 C         2.536589         1.199134        -1.334236
 O         1.195314         0.876756        -1.832159
 C         1.140050         0.498938        -0.399579
 C        -0.066024        -0.196267         0.251203
 H         0.424015         3.010409         0.778242
 H         2.039613         3.702422         0.629139
 H         0.825182         3.571872        -0.868597
 H         3.697762         2.033362         1.330198
 H         2.800710         0.752111         2.113778
 H         3.310720        -0.773090        -1.236069
 H         3.006689         1.817048        -2.179448
 H        -0.058120        -0.378729         1.351563
 H        -0.883648         0.500237         0.157696
 H        -0.424124        -0.894478        -0.408475
