19
Iteration:  1994
 C         1.332342         3.131518         0.108386
 C         2.024680         1.807100         0.088499
 C         3.041978         1.238543         1.134890
 O         3.566684         0.164483         0.447620
 C         2.775716         0.007141        -0.724461
 C         2.473505         1.369813        -1.396777
 O         1.073304         0.861427        -1.747041
 C         1.328132         0.355946        -0.402075
 C         0.052352        -0.324281         0.161838
 H         0.810433         3.490472         1.064088
 H         2.056227         3.893656        -0.068440
 H         0.709385         3.003686        -0.726276
 H         3.801207         1.968777         1.534335
 H         2.441712         0.943093         1.974924
 H         3.187541        -0.817469        -1.332307
 H         3.118599         1.749196        -2.157181
 H         0.218287        -0.889542         0.983720
 H        -0.706840         0.393847         0.349160
 H        -0.141482        -0.998144        -0.651661
