19
Iteration:  4059
 C         1.154862         2.963792         0.231274
 C         1.969875         1.742492         0.046859
 C         3.071799         1.219775         1.027033
 O         3.640133         0.058156         0.457859
 C         2.759558        -0.047760        -0.663119
 C         2.533111         1.392389        -1.347093
 O         1.187640         0.959742        -1.843517
 C         1.330381         0.414451        -0.446737
 C         0.038422        -0.069582         0.193010
 H         0.635795         2.974537         1.262237
 H         1.567511         3.887368         0.097484
 H         0.373154         2.991064        -0.451651
 H         3.945922         1.834220         0.986676
 H         2.735883         0.865181         1.998441
 H         3.022563        -0.952906        -1.269315
 H         3.110970         1.940577        -2.194552
 H         0.390609        -0.528147         1.109846
 H        -0.851523         0.501769         0.418797
 H        -0.382545        -1.003739        -0.463881
