19
Iteration:  3601charge 0 multiplicity 1
 C         1.368989         3.104160         0.184218
 C         2.031566         1.706863         0.063468
 C         2.964797         1.235671         1.101713
 O         3.565171         0.085816         0.512879
 C         2.761093        -0.014439        -0.817632
 C         2.505895         1.387016        -1.302179
 O         1.134506         0.982772        -1.872816
 C         1.219144         0.400832        -0.508852
 C         0.091049        -0.301714         0.250348
 H         0.965746         3.101468         1.215049
 H         2.101427         4.095323        -0.017563
 H         0.510298         3.183438        -0.431319
 H         3.748578         1.980688         1.222958
 H         2.626717         1.023543         2.102322
 H         3.153883        -0.954732        -1.304094
 H         2.934782         1.982280        -2.140243
 H         0.441632        -0.711315         1.173413
 H        -0.735533         0.440705         0.418081
 H        -0.173077        -1.278237        -0.316990
