19
Iteration:  1183charge 0 multiplicity 1
 C         1.142695         3.097902         0.231467
 C         2.015867         1.805118        -0.051909
 C         2.991084         1.259572         1.040997
 O         3.586654         0.085961         0.378476
 C         2.777631        -0.092352        -0.711915
 C         2.527630         1.269618        -1.377905
 O         1.176362         0.913675        -1.816350
 C         1.268966         0.401167        -0.460337
 C         0.185475        -0.136283         0.339176
 H         0.555983         3.031973         1.166790
 H         1.856667         3.995395         0.280819
 H         0.535621         3.378954        -0.579705
 H         3.633515         2.036309         1.522766
 H         2.356467         0.840776         1.951925
 H         3.079257        -1.036652        -1.404981
 H         3.276572         1.791777        -2.009538
 H         0.594855        -0.669327         1.315003
 H        -0.591179         0.563542         0.678561
 H        -0.333282        -1.004062        -0.221560
