19
Iteration:  4879charge 0 multiplicity 1
 C         1.346296         3.097029         0.331541
 C         1.989324         1.754191         0.048853
 C         3.087738         1.359900         1.035193
 O         3.482098         0.088152         0.465996
 C         2.657178        -0.033957        -0.718801
 C         2.563378         1.265067        -1.395861
 O         1.204837         0.985618        -1.852657
 C         1.205752         0.486728        -0.411732
 C         0.111108        -0.411869         0.093227
 H         0.804659         3.060887         1.301760
 H         1.892307         3.978277         0.183099
 H         0.480841         3.349358        -0.388522
 H         3.955282         2.100054         1.252668
 H         2.649136         1.267452         2.034940
 H         2.800434        -1.063476        -0.989587
 H         3.306329         1.963678        -1.996407
 H         0.424239        -0.625093         1.209002
 H        -0.864787         0.094172         0.042504
 H         0.110925        -1.328919        -0.438722
