19
Iteration:  4270charge 0 multiplicity 1
 C         1.175569         3.036401         0.326760
 C         2.064542         1.749442         0.046620
 C         3.061167         1.299749         1.044099
 O         3.625775         0.105674         0.485088
 C         2.742427        -0.072631        -0.715983
 C         2.550100         1.288440        -1.412299
 O         1.162146         0.906589        -1.834506
 C         1.224813         0.477236        -0.392441
 C         0.066891        -0.204055         0.071464
 H         0.539281         2.892043         1.161815
 H         1.790310         3.891047         0.686402
 H         0.777814         3.550687        -0.580604
 H         3.833424         2.135344         1.178793
 H         2.594089         0.955190         2.032257
 H         2.852150        -0.949464        -1.414249
 H         3.256975         1.822847        -2.084198
 H         0.242912        -0.570592         1.177041
 H        -0.881968         0.410835         0.133985
 H        -0.151761        -1.050327        -0.502472
