19
Iteration:  1115
 C         1.258513         3.069090         0.232253
 C         1.982365         1.764238         0.040658
 C         3.248434         1.433523         0.936007
 O         3.557592         0.067107         0.478630
 C         2.659198        -0.030287        -0.625541
 C         2.520376         1.289090        -1.360528
 O         1.164681         0.949853        -1.820295
 C         1.202608         0.438510        -0.337033
 C         0.024306        -0.378472         0.146755
 H         0.876908         3.110654         1.210824
 H         1.900398         3.945344         0.016098
 H         0.395311         3.204048        -0.484836
 H         4.140971         1.954079         0.759825
 H         3.058925         1.521708         2.084411
 H         2.869623        -0.845488        -1.204157
 H         3.251385         1.870594        -2.048812
 H         0.455878        -1.204777         0.733484
 H        -0.837152         0.096210         0.735126
 H        -0.339610        -0.771705        -0.903082
